REMARK  Name = ZINC03820040
REMARK                            x       y       z     vdW  Elec       q    Type
REMARK                         _______ _______ _______ _____ _____    ______ ____
ROOT
ATOM      1  C   LIG    1       -2.437   4.336  -1.254  0.00  0.00    +0.094 A 
ATOM      2  C   LIG    1       -3.524   5.031  -0.760  0.00  0.00    +0.169 A 
ATOM      3  C   LIG    1       -3.559   6.398  -0.888  0.00  0.00    +0.085 A 
ATOM      4  N   LIG    1       -2.617   7.042  -1.573  0.00  0.00    -0.239 NA
ATOM      5  C   LIG    1       -1.622   6.302  -2.108  0.00  0.00    +0.155 A 
ATOM      6  N   LIG    1       -1.490   4.966  -1.965  0.00  0.00    -0.237 NA
ENDROOT
BRANCH   3   7
ATOM      7  N   LIG    1       -4.597   7.098  -0.255  0.00  0.00    -0.342 N 
ATOM      8  C   LIG    1       -5.905   6.934  -0.912  0.00  0.00    +0.164 C 
ATOM      9  C   LIG    1       -6.022   7.853  -2.146  0.00  0.00    +0.136 C 
ATOM     10  N   LIG    1       -5.778   9.315  -1.782  0.00  0.00    +0.428 N 
ATOM     11  H   LIG    1       -5.626   9.805  -2.673  0.00  0.00    +0.133 HD
ATOM     12  C   LIG    1       -6.947   9.984  -1.132  0.00  0.00    +0.156 C 
ATOM     13  C   LIG    1       -4.468   9.499  -1.016  0.00  0.00    +0.136 C 
ATOM     14  C   LIG    1       -4.295   8.488   0.134  0.00  0.00    +0.164 C 
ENDBRANCH   3   7
BRANCH   1  15
ATOM     15  N   LIG    1       -2.334   2.949  -1.003  0.00  0.00    -0.290 N 
ATOM     16  H   LIG    1       -1.612   2.502  -1.565  0.00  0.00    +0.205 HD
BRANCH  15  20
ATOM     17  C   LIG    1       -4.298  -0.297   2.259  0.00  0.00    +0.142 C 
ATOM     18  C   LIG    1       -3.773   0.888   1.539  0.00  0.00    +0.030 A 
ATOM     19  C   LIG    1       -3.279   0.971   0.210  0.00  0.00    +0.132 A 
ATOM     20  C   LIG    1       -2.892   2.281   0.046  0.00  0.00    +0.064 A 
ATOM     21  N   LIG    1       -3.135   2.872   1.263  0.00  0.00    -0.307 N 
ATOM     22  H   LIG    1       -2.947   3.829   1.535  0.00  0.00    +0.256 HD
ATOM     23  N   LIG    1       -3.721   2.071   2.159  0.00  0.00    -0.270 NA
ENDBRANCH  15  20
ENDBRANCH   1  15
BRANCH   5  24
ATOM     24  S   LIG    1       -0.417   7.144  -3.127  0.00  0.00    -0.051 S 
BRANCH  24  25
ATOM     25  C   LIG    1       -0.959   8.849  -3.140  0.00  0.00    +0.002 A 
ATOM     26  C   LIG    1       -1.028   9.588  -1.957  0.00  0.00    +0.046 A 
ATOM     27  C   LIG    1       -1.445  10.922  -1.974  0.00  0.00    +0.050 A 
ATOM     28  C   LIG    1       -1.774  11.556  -3.175  0.00  0.00    -0.008 A 
ATOM     29  C   LIG    1       -1.656  10.841  -4.367  0.00  0.00    +0.050 A 
ATOM     30  C   LIG    1       -1.269   9.491  -4.347  0.00  0.00    +0.046 A 
BRANCH  28  31
ATOM     31  N   LIG    1       -2.220  12.891  -3.228  0.00  0.00    -0.292 N 
ATOM     32  H   LIG    1       -2.247  13.338  -4.139  0.00  0.00    +0.204 HD
ATOM     33  C   LIG    1       -2.673  13.620  -2.154  0.00  0.00    +0.150 C 
ATOM     34  O   LIG    1       -2.902  13.172  -1.025  0.00  0.00    -0.382 OA
BRANCH  33  35
ATOM     35  C   LIG    1       -2.954  15.049  -2.441  0.00  0.00    +0.122 C 
ATOM     36  C   LIG    1       -3.837  15.867  -1.527  0.00  0.00    +0.050 C 
ATOM     37  C   LIG    1       -2.354  16.099  -1.536  0.00  0.00    +0.050 C 
ENDBRANCH  33  35
ENDBRANCH  28  31
ENDBRANCH  24  25
ENDBRANCH   5  24
TORSDOF 7
