REMARK  Name = ZINC03875028
REMARK                            x       y       z     vdW  Elec       q    Type
REMARK                         _______ _______ _______ _____ _____    ______ ____
ROOT
ATOM      1  C   LIG    1        0.558   0.613  -4.305  0.00  0.00    +0.110 A 
ATOM      2  C   LIG    1        0.008   1.758  -4.914  0.00  0.00    +0.090 A 
ATOM      3  C   LIG    1       -0.509   1.679  -6.206  0.00  0.00    +0.063 A 
ATOM      4  C   LIG    1       -0.471   0.447  -6.832  0.00  0.00    +0.015 A 
ATOM      5  C   LIG    1        0.059  -0.703  -6.233  0.00  0.00    +0.024 A 
ATOM      6  C   LIG    1       -0.111  -1.795  -7.213  0.00  0.00    +0.072 C 
ATOM      7  C   LIG    1       -0.706  -1.155  -8.449  0.00  0.00    +0.195 C 
ATOM      8  O   LIG    1       -0.919  -1.647  -9.541  0.00  0.00    -0.366 OA
ATOM      9  C   LIG    1        0.165  -3.090  -6.967  0.00  0.00    +0.096 C 
ATOM     10  N   LIG    1       -0.921   0.169  -8.114  0.00  0.00    -0.279 N 
ATOM     11  H   LIG    1       -1.320   0.831  -8.761  0.00  0.00    +0.208 HD
ATOM     12  C   LIG    1        0.598  -0.631  -4.960  0.00  0.00    +0.113 A 
ENDROOT
BRANCH   9  13
ATOM     13  C   LIG    1       -0.022  -4.195  -7.844  0.00  0.00    -0.009 A 
ATOM     14  C   LIG    1       -0.218  -5.550  -7.604  0.00  0.00    +0.058 A 
ATOM     15  C   LIG    1       -0.329  -6.209  -8.856  0.00  0.00    -0.051 A 
ATOM     16  C   LIG    1       -0.155  -5.246  -9.823  0.00  0.00    -0.037 A 
ATOM     17  C   LIG    1       -0.207  -5.442 -11.295  0.00  0.00    +0.085 C 
ATOM     18  C   LIG    1       -0.085  -6.942 -11.615  0.00  0.00    +0.021 C 
ATOM     19  C   LIG    1       -0.956  -7.805 -10.682  0.00  0.00    +0.017 C 
ATOM     20  C   LIG    1       -0.566  -7.641  -9.195  0.00  0.00    +0.065 C 
ATOM     21  N   LIG    1        0.023  -4.041  -9.212  0.00  0.00    -0.390 N 
ATOM     22  H   LIG    1        0.089  -3.155  -9.699  0.00  0.00    +0.196 HD
ENDBRANCH   9  13
BRANCH   1  23
ATOM     23  S   LIG    1        1.169   0.710  -2.635  0.00  0.00    -0.010 S 
ATOM     24  O   LIG    1        1.118   2.092  -2.204  0.00  0.00    -0.242 OA
ATOM     25  O   LIG    1        0.499  -0.339  -1.892  0.00  0.00    -0.242 OA
BRANCH  23  27
ATOM     26  C   LIG    1        3.654   1.307  -3.477  0.00  0.00    +0.207 C 
ATOM     27  N   LIG    1        2.809   0.284  -2.824  0.00  0.00    -0.214 NA
ATOM     28  C   LIG    1        3.441  -0.259  -1.602  0.00  0.00    +0.207 C 
ENDBRANCH  23  27
ENDBRANCH   1  23
TORSDOF 3
