REMARK  Name = ZINC22795012
REMARK                            x       y       z     vdW  Elec       q    Type
REMARK                         _______ _______ _______ _____ _____    ______ ____
ROOT
ATOM      1  N   LIG    1       -4.410  -4.108  -6.093  0.00  0.00    -0.363 N 
ATOM      2  C   LIG    1       -4.310  -5.457  -5.924  0.00  0.00    +0.120 A 
ATOM      3  C   LIG    1       -5.572  -6.018  -5.809  0.00  0.00    +0.018 A 
ATOM      4  C   LIG    1       -6.506  -4.932  -5.919  0.00  0.00    +0.081 A 
ATOM      5  C   LIG    1       -7.903  -4.750  -5.895  0.00  0.00    +0.086 A 
ATOM      6  N   LIG    1       -8.405  -3.509  -6.069  0.00  0.00    -0.267 NA
ATOM      7  C   LIG    1       -7.553  -2.488  -6.239  0.00  0.00    +0.277 A 
ATOM      8  N   LIG    1       -6.215  -2.520  -6.257  0.00  0.00    -0.260 NA
ATOM      9  C   LIG    1       -5.745  -3.778  -6.099  0.00  0.00    +0.103 A 
ENDROOT
BRANCH   1  13
ATOM     10  C   LIG    1       -0.494  -3.733  -5.207  0.00  0.00    +0.041 C 
ATOM     11  C   LIG    1       -1.662  -3.339  -4.283  0.00  0.00    +0.047 C 
ATOM     12  C   LIG    1       -2.789  -2.556  -4.965  0.00  0.00    +0.056 C 
ATOM     13  C   LIG    1       -3.305  -3.162  -6.287  0.00  0.00    +0.091 C 
ATOM     14  C   LIG    1       -2.146  -3.684  -7.166  0.00  0.00    +0.056 C 
ATOM     15  C   LIG    1       -1.078  -4.483  -6.410  0.00  0.00    +0.047 C 
BRANCH  10  20
ATOM     16  C   LIG    1        3.532  -4.317  -3.653  0.00  0.00    +0.132 C 
ATOM     17  N   LIG    1        2.442  -3.666  -4.371  0.00  0.00    -0.346 NA
ATOM     18  C   LIG    1        2.756  -3.413  -5.781  0.00  0.00    +0.123 C 
ATOM     19  C   LIG    1        1.536  -2.872  -6.579  0.00  0.00    +0.129 C 
ATOM     20  N   LIG    1        0.338  -2.517  -5.663  0.00  0.00    +0.429 N 
ATOM     21  H   LIG    1       -0.275  -1.903  -6.208  0.00  0.00    +0.135 HD
ATOM     22  C   LIG    1        0.913  -1.662  -4.525  0.00  0.00    +0.129 C 
ATOM     23  C   LIG    1        1.983  -2.435  -3.708  0.00  0.00    +0.123 C 
ENDBRANCH  10  20
ENDBRANCH   1  13
BRANCH   3  24
ATOM     24  C   LIG    1       -5.707  -7.468  -5.651  0.00  0.00    -0.028 A 
ATOM     25  C   LIG    1       -6.778  -8.193  -6.187  0.00  0.00    +0.042 A 
ATOM     26  C   LIG    1       -6.850  -9.589  -6.031  0.00  0.00    +0.088 A 
ATOM     27  C   LIG    1       -5.835 -10.274  -5.362  0.00  0.00    +0.054 A 
ATOM     28  C   LIG    1       -4.721  -9.573  -4.907  0.00  0.00    +0.088 A 
ATOM     29  C   LIG    1       -4.687  -8.185  -5.001  0.00  0.00    +0.042 A 
BRANCH  27  30
ATOM     30  O   LIG    1       -5.975 -11.635  -5.181  0.00  0.00    -0.534 OA
BRANCH  30  31
ATOM     31  C   LIG    1       -5.560 -12.173  -3.975  0.00  0.00    +0.053 A 
ATOM     32  C   LIG    1       -5.096 -13.489  -3.985  0.00  0.00    +0.083 A 
ATOM     33  C   LIG    1       -4.634 -14.074  -2.801  0.00  0.00    +0.020 A 
ATOM     34  C   LIG    1       -4.615 -13.340  -1.614  0.00  0.00    +0.006 A 
ATOM     35  C   LIG    1       -5.096 -12.034  -1.597  0.00  0.00    +0.020 A 
ATOM     36  C   LIG    1       -5.605 -11.469  -2.764  0.00  0.00    +0.083 A 
ENDBRANCH  30  31
ENDBRANCH  27  30
ENDBRANCH   3  24
BRANCH   5  37
ATOM     37  N   LIG    1       -8.852  -5.741  -5.681  0.00  0.00    -0.345 N 
ATOM     38  H   LIG    1       -9.762  -5.303  -5.571  0.00  0.00    +0.169 HD
ATOM     39  H   LIG    1       -8.605  -6.375  -4.929  0.00  0.00    +0.169 HD
ENDBRANCH   5  37
TORSDOF 6
