REMARK  Name = ZINC18825339
REMARK                            x       y       z     vdW  Elec       q    Type
REMARK                         _______ _______ _______ _____ _____    ______ ____
ROOT
ATOM      1  C   LIG    1        3.770  -0.027  -6.093  0.00  0.00    +0.099 C 
ATOM      2  C   LIG    1        4.597   0.874  -5.237  0.00  0.00    -0.011 A 
ATOM      3  C   LIG    1        5.805   0.532  -4.631  0.00  0.00    +0.000 A 
ATOM      4  N   LIG    1        6.279   1.674  -4.042  0.00  0.00    -0.383 N 
ATOM      5  C   LIG    1        5.394   2.710  -4.176  0.00  0.00    -0.006 A 
ATOM      6  C   LIG    1        5.761   4.059  -3.670  0.00  0.00    +0.122 C 
ATOM      7  H   LIG    1        7.139   1.732  -3.507  0.00  0.00    +0.197 HD
ATOM      8  C   LIG    1        4.265   2.226  -4.828  0.00  0.00    +0.072 A 
ENDROOT
BRANCH   3   9
ATOM      9  C   LIG    1        6.567  -0.676  -4.579  0.00  0.00    +0.098 C 
ATOM     10  C   LIG    1        7.369  -1.084  -3.577  0.00  0.00    +0.073 C 
ATOM     11  C   LIG    1        8.042  -2.398  -3.501  0.00  0.00    +0.026 A 
ATOM     12  C   LIG    1        8.257  -3.422  -4.404  0.00  0.00    +0.118 A 
ATOM     13  C   LIG    1        8.977  -4.537  -3.962  0.00  0.00    +0.088 A 
ATOM     14  F   LIG    1        9.221  -5.538  -4.819  0.00  0.00    -0.290 F 
ATOM     15  C   LIG    1        9.464  -4.640  -2.650  0.00  0.00    +0.095 A 
ATOM     16  C   LIG    1        9.259  -3.601  -1.745  0.00  0.00    +0.066 A 
ATOM     17  C   LIG    1        8.565  -2.498  -2.202  0.00  0.00    +0.016 A 
ATOM     18  N   LIG    1        8.330  -1.332  -1.488  0.00  0.00    -0.278 N 
ATOM     19  H   LIG    1        8.665  -1.129  -0.561  0.00  0.00    +0.208 HD
ATOM     20  C   LIG    1        7.684  -0.388  -2.263  0.00  0.00    +0.195 C 
ATOM     21  O   LIG    1        7.494   0.766  -1.949  0.00  0.00    -0.366 OA
ENDBRANCH   3   9
BRANCH   8  22
ATOM     22  C   LIG    1        3.018   2.974  -5.087  0.00  0.00    +0.189 C 
ATOM     23  N   LIG    1        2.672   3.865  -4.087  0.00  0.00    -0.310 N 
ATOM     24  H   LIG    1        3.144   3.773  -3.197  0.00  0.00    +0.190 HD
ATOM     25  O   LIG    1        2.316   2.789  -6.071  0.00  0.00    -0.368 OA
BRANCH  23  26
ATOM     26  C   LIG    1        1.433   4.637  -4.103  0.00  0.00    +0.190 C 
BRANCH  26  27
ATOM     27  C   LIG    1        0.265   3.892  -3.431  0.00  0.00    +0.137 C 
BRANCH  27  28
ATOM     28  O   LIG    1        0.630   3.615  -2.063  0.00  0.00    -0.446 OA
ATOM     29  H   LIG    1       -0.078   3.064  -1.685  0.00  0.00    +0.238 HD
ENDBRANCH  27  28
BRANCH  27  30
ATOM     30  C   LIG    1       -1.057   4.708  -3.416  0.00  0.00    +0.150 C 
BRANCH  30  31
ATOM     31  N   LIG    1       -1.607   5.144  -4.709  0.00  0.00    -0.332 NA
ATOM     32  C   LIG    1       -1.882   4.040  -5.654  0.00  0.00    +0.140 C 
ATOM     33  C   LIG    1       -3.122   3.202  -5.302  0.00  0.00    +0.201 C 
ATOM     34  O   LIG    1       -4.292   4.023  -5.193  0.00  0.00    -0.459 OA
ATOM     35  C   LIG    1       -4.102   5.051  -4.215  0.00  0.00    +0.201 C 
ATOM     36  C   LIG    1       -2.865   5.914  -4.531  0.00  0.00    +0.140 C 
ENDBRANCH  30  31
ENDBRANCH  27  30
ENDBRANCH  26  27
ENDBRANCH  23  26
ENDBRANCH   8  22
TORSDOF 7
