REMARK  Name = ZINC12504479
REMARK                            x       y       z     vdW  Elec       q    Type
REMARK                         _______ _______ _______ _____ _____    ______ ____
ROOT
ATOM      1  C   LIG    1        1.068   2.162  -1.336  0.00  0.00    +0.044 A 
ATOM      2  N   LIG    1        2.379   2.555  -1.470  0.00  0.00    -0.353 N 
ATOM      3  C   LIG    1        2.438   3.929  -1.453  0.00  0.00    +0.050 A 
ATOM      4  C   LIG    1        3.506   4.850  -1.538  0.00  0.00    +0.008 A 
ATOM      5  C   LIG    1        4.830   4.368  -1.655  0.00  0.00    +0.052 A 
ATOM      6  C   LIG    1        5.889   5.263  -1.736  0.00  0.00    +0.090 A 
ATOM      7  C   LIG    1        5.628   6.623  -1.700  0.00  0.00    +0.087 A 
ATOM      8  F   LIG    1        6.649   7.487  -1.778  0.00  0.00    -0.290 F 
ATOM      9  C   LIG    1        4.326   7.110  -1.586  0.00  0.00    +0.114 A 
ATOM     10  C   LIG    1        3.208   6.243  -1.499  0.00  0.00    +0.022 A 
ATOM     11  C   LIG    1        1.841   6.644  -1.379  0.00  0.00    +0.087 A 
ATOM     12  C   LIG    1        0.803   5.688  -1.293  0.00  0.00    +0.040 A 
ATOM     13  C   LIG    1       -0.602   6.067  -1.170  0.00  0.00    +0.070 A 
ATOM     14  C   LIG    1       -0.918   7.363  -1.139  0.00  0.00    +0.103 A 
ATOM     15  N   LIG    1        0.048   8.324  -1.219  0.00  0.00    -0.335 N 
ATOM     16  H   LIG    1       -0.211   9.304  -1.194  0.00  0.00    +0.217 HD
ATOM     17  C   LIG    1        1.403   8.083  -1.336  0.00  0.00    +0.200 A 
ATOM     18  O   LIG    1        2.174   9.034  -1.399  0.00  0.00    -0.362 OA
ATOM     19  C   LIG    1        1.113   4.319  -1.329  0.00  0.00    +0.079 A 
ATOM     20  H   LIG    1        3.168   1.934  -1.565  0.00  0.00    +0.209 HD
ATOM     21  N   LIG    1        0.286   3.219  -1.261  0.00  0.00    -0.283 NA
ENDROOT
BRANCH   1  23
ATOM     22  C   LIG    1        0.565   0.198  -2.778  0.00  0.00    +0.050 C 
ATOM     23  C   LIG    1        0.628   0.713  -1.330  0.00  0.00    +0.004 C 
ATOM     24  C   LIG    1        1.598  -0.161  -0.516  0.00  0.00    +0.050 C 
ATOM     25  C   LIG    1       -0.772   0.595  -0.697  0.00  0.00    +0.050 C 
ENDBRANCH   1  23
TORSDOF 1
