REMARK  Name = ZINC22795012
REMARK                            x       y       z     vdW  Elec       q    Type
REMARK                         _______ _______ _______ _____ _____    ______ ____
ROOT
ATOM      1  N   LIG    1       -3.213   7.295   7.126  0.00  0.00    -0.364 N 
ATOM      2  C   LIG    1       -2.775   8.342   6.351  0.00  0.00    +0.120 A 
ATOM      3  C   LIG    1       -3.394   9.510   6.774  0.00  0.00    +0.018 A 
ATOM      4  C   LIG    1       -4.275   9.142   7.854  0.00  0.00    +0.081 A 
ATOM      5  C   LIG    1       -5.201   9.755   8.726  0.00  0.00    +0.086 A 
ATOM      6  N   LIG    1       -5.763   9.044   9.719  0.00  0.00    -0.267 NA
ATOM      7  C   LIG    1       -5.467   7.746   9.822  0.00  0.00    +0.277 A 
ATOM      8  N   LIG    1       -4.672   7.037   9.013  0.00  0.00    -0.260 NA
ATOM      9  C   LIG    1       -4.098   7.770   8.062  0.00  0.00    +0.103 A 
ENDROOT
BRANCH   1  13
ATOM     10  C   LIG    1       -4.089   3.287   7.532  0.00  0.00    +0.046 C 
ATOM     11  C   LIG    1       -3.644   4.218   8.675  0.00  0.00    +0.040 C 
ATOM     12  C   LIG    1       -2.498   5.154   8.287  0.00  0.00    +0.050 C 
ATOM     13  C   LIG    1       -2.703   5.927   6.973  0.00  0.00    +0.088 C 
ATOM     14  C   LIG    1       -3.448   5.145   5.872  0.00  0.00    +0.050 C 
ATOM     15  C   LIG    1       -4.540   4.204   6.374  0.00  0.00    +0.040 C 
BRANCH  10  21
ATOM     16  C   LIG    1       -0.587  -1.153   6.557  0.00  0.00    +0.155 C 
ATOM     17  N   LIG    1       -1.392   0.082   6.782  0.00  0.00    +0.427 N 
ATOM     18  H   LIG    1       -0.760   0.895   6.750  0.00  0.00    +0.132 HD
ATOM     19  C   LIG    1       -2.414   0.342   5.687  0.00  0.00    +0.127 C 
ATOM     20  C   LIG    1       -3.529   1.305   6.171  0.00  0.00    +0.126 C 
ATOM     21  N   LIG    1       -3.043   2.286   7.167  0.00  0.00    -0.340 NA
ATOM     22  C   LIG    1       -2.567   1.563   8.384  0.00  0.00    +0.126 C 
ATOM     23  C   LIG    1       -2.032   0.135   8.146  0.00  0.00    +0.127 C 
ENDBRANCH  10  21
ENDBRANCH   1  13
BRANCH   3  24
ATOM     24  C   LIG    1       -3.031  10.807   6.200  0.00  0.00    -0.028 A 
ATOM     25  C   LIG    1       -2.606  10.927   4.864  0.00  0.00    +0.042 A 
ATOM     26  C   LIG    1       -2.240  12.172   4.333  0.00  0.00    +0.088 A 
ATOM     27  C   LIG    1       -2.247  13.310   5.137  0.00  0.00    +0.054 A 
ATOM     28  C   LIG    1       -2.665  13.201   6.464  0.00  0.00    +0.088 A 
ATOM     29  C   LIG    1       -3.045  11.960   6.988  0.00  0.00    +0.042 A 
BRANCH  27  30
ATOM     30  O   LIG    1       -1.897  14.497   4.529  0.00  0.00    -0.534 OA
BRANCH  30  31
ATOM     31  C   LIG    1       -1.290  15.489   5.269  0.00  0.00    +0.053 A 
ATOM     32  C   LIG    1       -1.613  16.809   4.945  0.00  0.00    +0.083 A 
ATOM     33  C   LIG    1       -1.021  17.867   5.639  0.00  0.00    +0.020 A 
ATOM     34  C   LIG    1       -0.112  17.607   6.665  0.00  0.00    +0.006 A 
ATOM     35  C   LIG    1        0.232  16.292   6.972  0.00  0.00    +0.020 A 
ATOM     36  C   LIG    1       -0.331  15.236   6.254  0.00  0.00    +0.083 A 
ENDBRANCH  30  31
ENDBRANCH  27  30
ENDBRANCH   3  24
BRANCH   5  37
ATOM     37  N   LIG    1       -5.654  11.070   8.645  0.00  0.00    -0.345 N 
ATOM     38  H   LIG    1       -6.357  11.176   9.377  0.00  0.00    +0.169 HD
ATOM     39  H   LIG    1       -6.039  11.263   7.726  0.00  0.00    +0.169 HD
ENDBRANCH   5  37
TORSDOF 6
