REMARK  Name = ZINC22448983
REMARK                            x       y       z     vdW  Elec       q    Type
REMARK                         _______ _______ _______ _____ _____    ______ ____
ROOT
ATOM      1  C   LIG    1       -7.129  -1.761  -0.861  0.00  0.00    +0.103 A 
ATOM      2  C   LIG    1       -7.431  -1.017  -1.981  0.00  0.00    +0.159 A 
ATOM      3  C   LIG    1       -8.005  -1.503  -3.156  0.00  0.00    +0.058 A 
ATOM      4  C   LIG    1       -8.167  -2.887  -3.336  0.00  0.00    +0.041 A 
ATOM      5  C   LIG    1       -8.396  -3.431  -4.657  0.00  0.00    +0.056 A 
ATOM      6  C   LIG    1       -8.612  -2.473  -5.637  0.00  0.00    +0.120 A 
ATOM      7  C   LIG    1       -8.620  -1.120  -5.305  0.00  0.00    +0.194 A 
ATOM      8  C   LIG    1       -7.986  -3.648  -2.188  0.00  0.00    +0.139 A 
ATOM      9  N   LIG    1       -8.317  -0.613  -4.097  0.00  0.00    -0.308 NA
ATOM     10  C   LIG    1       -7.404  -3.125  -1.013  0.00  0.00    +0.098 A 
ENDROOT
BRANCH   5  11
ATOM     11  N   LIG    1       -8.252  -4.847  -4.850  0.00  0.00    -0.320 N 
ATOM     12  H   LIG    1       -7.916  -5.337  -4.018  0.00  0.00    +0.188 HD
BRANCH  11  13
ATOM     13  C   LIG    1       -8.420  -5.812  -5.888  0.00  0.00    +0.034 A 
ATOM     14  C   LIG    1       -9.245  -5.622  -6.997  0.00  0.00    +0.139 A 
ATOM     15  C   LIG    1       -9.505  -6.610  -7.957  0.00  0.00    +0.079 A 
ATOM     16  C   LIG    1       -8.894  -7.853  -7.821  0.00  0.00    +0.082 A 
ATOM     17 CL   LIG    1       -9.232  -9.140  -8.920  0.00  0.00    -0.107 Cl
ATOM     18  C   LIG    1       -7.989  -8.069  -6.785  0.00  0.00    +0.123 A 
ATOM     19  C   LIG    1       -7.726  -7.045  -5.858  0.00  0.00    +0.058 A 
ATOM     20 CL   LIG    1       -6.447  -7.314  -4.722  0.00  0.00    -0.118 Cl
BRANCH  15  21
ATOM     21  O   LIG    1      -10.312  -6.407  -9.048  0.00  0.00    -0.574 OA
ATOM     22  C   LIG    1      -11.334  -5.422  -8.931  0.00  0.00    +0.353 C 
ENDBRANCH  15  21
ENDBRANCH  11  13
ENDBRANCH   5  11
BRANCH   6  23
ATOM     23  C   LIG    1       -8.757  -2.670  -7.048  0.00  0.00    +0.103 C 
ATOM     24  N   LIG    1       -8.937  -2.705  -8.166  0.00  0.00    -0.272 NA
ENDBRANCH   6  23
BRANCH  10  25
ATOM     25  O   LIG    1       -7.016  -4.192  -0.260  0.00  0.00    -0.568 OA
ATOM     26  C   LIG    1       -6.844  -3.981   1.111  0.00  0.00    +0.355 C 
ENDBRANCH  10  25
BRANCH   1  27
ATOM     27  O   LIG    1       -6.725  -1.169   0.309  0.00  0.00    -0.563 OA
BRANCH  27  28
ATOM     28  C   LIG    1       -5.876   0.007   0.427  0.00  0.00    +0.269 C 
BRANCH  28  29
ATOM     29  C   LIG    1       -6.306   1.430  -0.058  0.00  0.00    +0.094 C 
BRANCH  29  30
ATOM     30  C   LIG    1       -7.590   2.144   0.494  0.00  0.00    +0.109 C 
BRANCH  30  36
ATOM     31  C   LIG    1      -11.079   4.520  -1.985  0.00  0.00    +0.155 C 
ATOM     32  N   LIG    1      -10.853   3.226  -1.256  0.00  0.00    +0.427 N 
ATOM     33  H   LIG    1      -11.691   2.641  -1.375  0.00  0.00    +0.132 HD
ATOM     34  C   LIG    1       -9.738   2.465  -1.894  0.00  0.00    +0.127 C 
ATOM     35  C   LIG    1       -9.364   1.273  -1.035  0.00  0.00    +0.125 C 
ATOM     36  N   LIG    1       -8.921   1.520   0.333  0.00  0.00    -0.341 NA
ATOM     37  C   LIG    1      -10.039   2.226   0.993  0.00  0.00    +0.125 C 
ATOM     38  C   LIG    1      -10.649   3.446   0.241  0.00  0.00    +0.127 C 
ENDBRANCH  30  36
ENDBRANCH  29  30
ENDBRANCH  28  29
ENDBRANCH  27  28
ENDBRANCH   1  27
TORSDOF 10
