REMARK  Name = ZINC21982951
REMARK                            x       y       z     vdW  Elec       q    Type
REMARK                         _______ _______ _______ _____ _____    ______ ____
ROOT
ATOM      1  N   LIG    1       -1.716   2.033   7.879  0.00  0.00    -0.278 N 
ATOM      2  H   LIG    1       -1.561   1.526   7.016  0.00  0.00    +0.209 HD
ENDROOT
BRANCH   1   3
ATOM      3  C   LIG    1       -1.424   1.220   8.981  0.00  0.00    +0.090 A 
ATOM      4  N   LIG    1       -1.186  -0.073   8.727  0.00  0.00    -0.264 NA
ATOM      5  C   LIG    1       -0.995  -0.872   9.792  0.00  0.00    +0.081 A 
ATOM      6  C   LIG    1       -0.752  -2.323   9.519  0.00  0.00    +0.184 C 
ATOM      7  N   LIG    1       -1.018  -0.471  11.077  0.00  0.00    -0.266 NA
ATOM      8  C   LIG    1       -1.187   0.838  11.314  0.00  0.00    +0.075 A 
ATOM      9  C   LIG    1       -1.370   1.717  10.269  0.00  0.00    +0.167 A 
BRANCH   8  10
ATOM     10  N   LIG    1       -1.226   1.350  12.633  0.00  0.00    -0.348 N 
ATOM     11  C   LIG    1       -0.097   2.261  12.915  0.00  0.00    +0.153 C 
ATOM     12  C   LIG    1       -0.042   2.701  14.401  0.00  0.00    +0.124 C 
ATOM     13  N   LIG    1       -0.197   1.629  15.414  0.00  0.00    -0.339 NA
ATOM     14  C   LIG    1       -1.422   0.874  15.074  0.00  0.00    +0.124 C 
ATOM     15  C   LIG    1       -1.483   0.309  13.639  0.00  0.00    +0.153 C 
BRANCH  13  16
ATOM     16  C   LIG    1        1.021   0.804  15.501  0.00  0.00    +0.136 C 
BRANCH  16  17
ATOM     17  C   LIG    1        0.987  -0.340  16.529  0.00  0.00    +0.194 C 
BRANCH  17  18
ATOM     18  O   LIG    1        2.240  -1.025  16.501  0.00  0.00    -0.455 OA
ATOM     19  H   LIG    1        2.050  -1.979  16.535  0.00  0.00    +0.234 HD
ENDBRANCH  17  18
ENDBRANCH  16  17
ENDBRANCH  13  16
ENDBRANCH   8  10
ENDBRANCH   1   3
BRANCH   1  23
ATOM     20  C   LIG    1       -4.330   4.787   8.152  0.00  0.00    +0.128 A 
ATOM     21  C   LIG    1       -3.735   4.758   6.908  0.00  0.00    +0.207 A 
ATOM     22  N   LIG    1       -2.796   3.750   6.708  0.00  0.00    -0.277 NA
ATOM     23  C   LIG    1       -2.623   3.040   7.804  0.00  0.00    +0.113 A 
ATOM     24  S   LIG    1       -3.719   3.473   9.063  0.00  0.00    -0.027 S 
BRANCH  20  27
ATOM     25  N   LIG    1       -5.818   6.695   8.045  0.00  0.00    -0.271 N 
ATOM     26  H   LIG    1       -5.967   6.494   7.061  0.00  0.00    +0.210 HD
ATOM     27  C   LIG    1       -5.281   5.670   8.801  0.00  0.00    +0.213 C 
ATOM     28  O   LIG    1       -5.620   5.500   9.986  0.00  0.00    -0.361 OA
BRANCH  25  36
ATOM     29  C   LIG    1       -4.808   8.357  10.303  0.00  0.00    +0.088 C 
ATOM     30  C   LIG    1       -6.155   8.547   9.656  0.00  0.00    -0.047 A 
ATOM     31  C   LIG    1       -6.901   9.682  10.036  0.00  0.00    +0.017 A 
ATOM     32  C   LIG    1       -8.080  10.028   9.379  0.00  0.00    +0.014 A 
ATOM     33  C   LIG    1       -8.563   9.217   8.359  0.00  0.00    +0.057 A 
ATOM     34  C   LIG    1       -7.852   8.070   7.984  0.00  0.00    +0.047 A 
ATOM     35 CL   LIG    1       -8.555   7.054   6.771  0.00  0.00    -0.120 Cl
ATOM     36  C   LIG    1       -6.627   7.735   8.599  0.00  0.00    +0.031 A 
ENDBRANCH  25  36
ENDBRANCH  20  27
ENDBRANCH   1  23
TORSDOF 8
