REMARK  Name = ZINC71295347
REMARK                            x       y       z     vdW  Elec       q    Type
REMARK                         _______ _______ _______ _____ _____    ______ ____
ROOT
ATOM      1  C   LIG    1       -5.010   1.533   0.055  0.00  0.00    +0.094 C 
ATOM      2  C   LIG    1       -4.381   1.604  -1.311  0.00  0.00    -0.011 A 
ATOM      3  C   LIG    1       -4.779   0.715  -2.313  0.00  0.00    +0.102 A 
ATOM      4  C   LIG    1       -4.174   0.762  -3.570  0.00  0.00    +0.076 A 
ATOM      5  N   LIG    1       -3.176   1.639  -3.833  0.00  0.00    -0.262 NA
ATOM      6  C   LIG    1       -2.782   2.526  -2.886  0.00  0.00    +0.101 A 
ATOM      7  C   LIG    1       -3.388   2.547  -1.619  0.00  0.00    +0.121 A 
ENDROOT
BRANCH   4   8
ATOM      8  N   LIG    1       -4.615  -0.168  -4.537  0.00  0.00    -0.284 N 
ATOM      9  H   LIG    1       -5.624  -0.171  -4.626  0.00  0.00    +0.206 HD
BRANCH   8  10
ATOM     10  C   LIG    1       -3.963  -0.689  -5.598  0.00  0.00    +0.098 A 
ATOM     11  C   LIG    1       -2.581  -0.569  -5.851  0.00  0.00    +0.133 A 
ATOM     12  C   LIG    1       -2.359  -1.206  -7.049  0.00  0.00    -0.001 A 
ATOM     13  C   LIG    1       -1.139  -1.324  -7.874  0.00  0.00    +0.127 C 
ATOM     14  N   LIG    1       -3.562  -1.763  -7.381  0.00  0.00    -0.325 N 
ATOM     15  H   LIG    1       -3.778  -2.366  -8.169  0.00  0.00    +0.246 HD
ATOM     16  N   LIG    1       -4.558  -1.436  -6.535  0.00  0.00    -0.244 NA
ENDBRANCH   8  10
ENDBRANCH   4   8
BRANCH   6  17
ATOM     17  N   LIG    1       -1.803   3.492  -3.199  0.00  0.00    -0.345 N 
ATOM     18  H   LIG    1       -1.133   3.563  -2.439  0.00  0.00    +0.177 HD
BRANCH  17  19
ATOM     19  C   LIG    1       -1.167   3.455  -4.523  0.00  0.00    +0.061 C 
ATOM     20  C   LIG    1       -1.984   4.321  -5.483  0.00  0.00    +0.052 C 
BRANCH  19  21
ATOM     21  C   LIG    1        0.265   4.041  -4.446  0.00  0.00    +0.037 C 
BRANCH  21  22
ATOM     22  C   LIG    1        1.198   3.196  -3.578  0.00  0.00    +0.020 C 
BRANCH  22  23
ATOM     23  C   LIG    1        2.621   3.768  -3.506  0.00  0.00    +0.055 C 
BRANCH  23  24
ATOM     24  C   LIG    1        3.572   2.922  -2.631  0.00  0.00    -0.000 C 
ATOM     25  C   LIG    1        3.066   2.766  -1.193  0.00  0.00    +0.076 C 
ATOM     26  C   LIG    1        4.971   3.548  -2.614  0.00  0.00    +0.076 C 
BRANCH  24  27
ATOM     27  O   LIG    1        3.644   1.616  -3.211  0.00  0.00    -0.455 OA
ATOM     28  H   LIG    1        4.576   1.356  -3.292  0.00  0.00    +0.236 HD
ENDBRANCH  24  27
ENDBRANCH  23  24
ENDBRANCH  22  23
ENDBRANCH  21  22
ENDBRANCH  19  21
ENDBRANCH  17  19
ENDBRANCH   6  17
BRANCH   7  29
ATOM     29  C   LIG    1       -3.013   3.548  -0.655  0.00  0.00    +0.104 C 
ATOM     30  N   LIG    1       -2.719   4.342   0.132  0.00  0.00    -0.272 NA
ENDBRANCH   7  29
TORSDOF 10
