REMARK  Name = ZINC18825334
REMARK                            x       y       z     vdW  Elec       q    Type
REMARK                         _______ _______ _______ _____ _____    ______ ____
ROOT
ATOM      1  C   LIG    1        2.735   0.596  -0.228  0.00  0.00    +0.064 C 
ATOM      2  N   LIG    1        2.613   1.705   0.425  0.00  0.00    -0.338 NA
ATOM      3  C   LIG    1        3.709   2.664   0.442  0.00  0.00    +0.258 C 
ATOM      4  C   LIG    1        3.921   3.282  -0.898  0.00  0.00    +0.026 A 
ATOM      5  C   LIG    1        3.808   4.637  -1.122  0.00  0.00    +0.175 A 
ATOM      6  N   LIG    1        4.065   5.232  -2.304  0.00  0.00    -0.267 NA
ATOM      7  C   LIG    1        4.431   4.433  -3.317  0.00  0.00    +0.143 A 
ATOM      8  N   LIG    1        4.539   3.103  -3.187  0.00  0.00    -0.250 NA
ATOM      9  C   LIG    1        4.290   2.529  -1.993  0.00  0.00    +0.069 A 
ATOM     10  C   LIG    1        4.587   1.082  -1.909  0.00  0.00    +0.013 A 
ATOM     11  C   LIG    1        5.596   0.539  -2.738  0.00  0.00    +0.045 A 
ATOM     12  C   LIG    1        6.025  -0.784  -2.609  0.00  0.00    +0.054 A 
ATOM     13  C   LIG    1        5.480  -1.585  -1.616  0.00  0.00    +0.022 A 
ATOM     14 CL   LIG    1        6.052  -3.193  -1.400  0.00  0.00    -0.130 Cl
ATOM     15  C   LIG    1        4.460  -1.100  -0.802  0.00  0.00    +0.081 A 
ATOM     16  C   LIG    1        3.967   0.204  -0.992  0.00  0.00    +0.017 A 
ENDROOT
BRANCH   1  21
ATOM     17  C   LIG    1       -0.745  -1.983  -0.265  0.00  0.00    +0.039 A 
ATOM     18  C   LIG    1       -0.463  -1.186   0.841  0.00  0.00    +0.095 A 
ATOM     19  C   LIG    1        0.674  -0.372   0.851  0.00  0.00    +0.119 A 
ATOM     20  F   LIG    1        0.906   0.342   1.962  0.00  0.00    -0.282 F 
ATOM     21  C   LIG    1        1.549  -0.328  -0.241  0.00  0.00    +0.105 A 
ATOM     22  C   LIG    1        1.240  -1.127  -1.348  0.00  0.00    +0.119 A 
ATOM     23  F   LIG    1        2.005  -1.116  -2.449  0.00  0.00    -0.282 F 
ATOM     24  C   LIG    1        0.113  -1.955  -1.361  0.00  0.00    +0.095 A 
ENDBRANCH   1  21
BRANCH   7  25
ATOM     25  N   LIG    1        4.791   5.060  -4.506  0.00  0.00    -0.293 N 
ATOM     26  H   LIG    1        4.795   6.062  -4.406  0.00  0.00    +0.205 HD
BRANCH  25  27
ATOM     27  C   LIG    1        5.191   4.533  -5.743  0.00  0.00    -0.008 A 
ATOM     28  C   LIG    1        6.018   5.291  -6.585  0.00  0.00    +0.048 A 
ATOM     29  C   LIG    1        6.487   4.769  -7.799  0.00  0.00    +0.038 A 
ATOM     30  C   LIG    1        6.153   3.469  -8.204  0.00  0.00    -0.012 A 
ATOM     31  C   LIG    1        5.341   2.708  -7.356  0.00  0.00    +0.038 A 
ATOM     32  C   LIG    1        4.872   3.233  -6.147  0.00  0.00    +0.048 A 
BRANCH  30  33
ATOM     33  C   LIG    1        6.653   2.895  -9.513  0.00  0.00    +0.059 C 
ATOM     34  O   LIG    1        7.138   3.722 -10.355  0.00  0.00    -0.556 OA
ATOM     35  O   LIG    1        6.552   1.642  -9.676  0.00  0.00    -0.556 OA
ENDBRANCH  30  33
ENDBRANCH  25  27
ENDBRANCH   7  25
TORSDOF 4
