REMARK  Name = ZINC33970297
REMARK                            x       y       z     vdW  Elec       q    Type
REMARK                         _______ _______ _______ _____ _____    ______ ____
ROOT
ATOM      1  C   LIG    1       -4.263  -1.283   4.139  0.00  0.00    +0.037 A 
ATOM      2  C   LIG    1       -3.783  -2.556   4.445  0.00  0.00    +0.084 A 
ATOM      3  C   LIG    1       -3.984  -3.628   3.562  0.00  0.00    +0.042 A 
ATOM      4  C   LIG    1       -4.648  -3.447   2.338  0.00  0.00    -0.028 A 
ATOM      5  C   LIG    1       -5.095  -2.146   2.033  0.00  0.00    -0.049 A 
ATOM      6  C   LIG    1       -5.679  -1.907   0.666  0.00  0.00    +0.076 C 
ATOM      7  C   LIG    1       -4.772  -2.553  -0.393  0.00  0.00    +0.084 C 
ATOM      8  C   LIG    1       -4.452  -4.006  -0.092  0.00  0.00    -0.023 A 
ATOM      9  C   LIG    1       -3.846  -4.919  -0.987  0.00  0.00    +0.014 A 
ATOM     10  N   LIG    1       -3.246  -4.826  -2.240  0.00  0.00    -0.374 N 
ATOM     11  C   LIG    1       -2.631  -6.041  -2.588  0.00  0.00    +0.003 A 
ATOM     12  C   LIG    1       -2.904  -6.978  -1.581  0.00  0.00    -0.003 A 
ATOM     13  C   LIG    1       -2.360  -8.275  -1.691  0.00  0.00    +0.033 A 
ATOM     14  C   LIG    1       -1.532  -8.594  -2.772  0.00  0.00    +0.008 A 
ATOM     15  C   LIG    1       -1.263  -7.652  -3.755  0.00  0.00    +0.012 A 
ATOM     16  C   LIG    1       -1.821  -6.373  -3.692  0.00  0.00    +0.049 A 
ATOM     17  C   LIG    1       -3.653  -6.241  -0.672  0.00  0.00    +0.012 A 
ATOM     18  C   LIG    1       -4.130  -6.765   0.545  0.00  0.00    +0.005 A 
ATOM     19  C   LIG    1       -4.179  -8.139   1.050  0.00  0.00    +0.204 C 
ATOM     20  N   LIG    1       -4.811  -7.897   2.326  0.00  0.00    -0.309 N 
ATOM     21  H   LIG    1       -5.096  -8.620   2.970  0.00  0.00    +0.190 HD
ATOM     22  C   LIG    1       -5.103  -6.568   2.624  0.00  0.00    +0.187 C 
ATOM     23  O   LIG    1       -5.679  -6.252   3.650  0.00  0.00    -0.368 OA
ATOM     24  C   LIG    1       -4.623  -5.827   1.474  0.00  0.00    +0.072 A 
ATOM     25  C   LIG    1       -4.639  -4.448   1.253  0.00  0.00    +0.008 A 
ATOM     26  C   LIG    1       -4.916  -1.081   2.928  0.00  0.00    +0.089 A 
ENDROOT
BRANCH   1  27
ATOM     27  O   LIG    1       -3.953  -0.280   5.019  0.00  0.00    -0.579 OA
BRANCH  27  29
ATOM     28  C   LIG    1       -5.888   0.277   6.344  0.00  0.00    +0.098 C 
ATOM     29  C   LIG    1       -4.958   0.724   5.223  0.00  0.00    +0.147 C 
ATOM     30  C   LIG    1       -4.264   2.031   5.597  0.00  0.00    +0.098 C 
ENDBRANCH  27  29
ENDBRANCH   1  27
BRANCH  10  31
ATOM     31  C   LIG    1       -3.129  -3.628  -3.062  0.00  0.00    +0.194 C 
BRANCH  31  32
ATOM     32  C   LIG    1       -1.855  -2.821  -2.805  0.00  0.00    +0.207 C 
BRANCH  32  33
ATOM     33  O   LIG    1       -0.665  -3.543  -3.104  0.00  0.00    -0.453 OA
ATOM     34  H   LIG    1       -0.556  -4.221  -2.410  0.00  0.00    +0.235 HD
ENDBRANCH  32  33
ENDBRANCH  31  32
ENDBRANCH  10  31
TORSDOF 5
