REMARK  Name = ZINC02541690
REMARK                            x       y       z     vdW  Elec       q    Type
REMARK                         _______ _______ _______ _____ _____    ______ ____
ROOT
ATOM      1  C   LIG    1        5.859  -4.469  -1.077  0.00  0.00    +0.018 A 
ATOM      2  C   LIG    1        5.375  -5.755  -0.941  0.00  0.00    +0.120 A 
ATOM      3  N   LIG    1        6.356  -6.644  -1.292  0.00  0.00    -0.364 N 
ATOM      4  C   LIG    1        7.487  -5.955  -1.637  0.00  0.00    +0.103 A 
ATOM      5  N   LIG    1        8.652  -6.526  -2.005  0.00  0.00    -0.260 NA
ATOM      6  C   LIG    1        9.591  -5.616  -2.274  0.00  0.00    +0.277 A 
ATOM      7  N   LIG    1        9.482  -4.279  -2.232  0.00  0.00    -0.267 NA
ATOM      8  C   LIG    1        8.297  -3.743  -1.878  0.00  0.00    +0.086 A 
ATOM      9  C   LIG    1        7.224  -4.589  -1.533  0.00  0.00    +0.081 A 
ENDROOT
BRANCH   1  13
ATOM     10  C   LIG    1        3.465  -1.073   0.017  0.00  0.00    +0.054 A 
ATOM     11  C   LIG    1        4.835  -1.090   0.259  0.00  0.00    +0.088 A 
ATOM     12  C   LIG    1        5.616  -2.185  -0.135  0.00  0.00    +0.042 A 
ATOM     13  C   LIG    1        5.032  -3.316  -0.713  0.00  0.00    -0.028 A 
ATOM     14  C   LIG    1        3.636  -3.334  -0.861  0.00  0.00    +0.042 A 
ATOM     15  C   LIG    1        2.859  -2.222  -0.502  0.00  0.00    +0.088 A 
BRANCH  10  16
ATOM     16  O   LIG    1        2.641  -0.019   0.336  0.00  0.00    -0.534 OA
BRANCH  16  20
ATOM     17  C   LIG    1        3.797   4.004   0.255  0.00  0.00    +0.006 A 
ATOM     18  C   LIG    1        4.423   3.113  -0.614  0.00  0.00    +0.020 A 
ATOM     19  C   LIG    1        4.061   1.761  -0.618  0.00  0.00    +0.083 A 
ATOM     20  C   LIG    1        3.099   1.284   0.278  0.00  0.00    +0.053 A 
ATOM     21  C   LIG    1        2.470   2.187   1.142  0.00  0.00    +0.083 A 
ATOM     22  C   LIG    1        2.820   3.542   1.133  0.00  0.00    +0.020 A 
ENDBRANCH  16  20
ENDBRANCH  10  16
ENDBRANCH   1  13
BRANCH   3  23
ATOM     23  C   LIG    1        6.211  -8.086  -1.297  0.00  0.00    +0.086 C 
ATOM     24  C   LIG    1        5.864  -8.682   0.069  0.00  0.00    +0.044 C 
ATOM     25  C   LIG    1        5.381 -10.078  -0.287  0.00  0.00    +0.011 C 
ATOM     26  C   LIG    1        4.601  -9.902  -1.586  0.00  0.00    +0.011 C 
ATOM     27  C   LIG    1        5.089  -8.594  -2.212  0.00  0.00    +0.044 C 
ENDBRANCH   3  23
BRANCH   8  28
ATOM     28  N   LIG    1        8.255  -2.349  -1.932  0.00  0.00    -0.345 N 
ATOM     29  H   LIG    1        9.134  -2.031  -2.327  0.00  0.00    +0.169 HD
ATOM     30  H   LIG    1        7.438  -2.022  -2.438  0.00  0.00    +0.169 HD
ENDBRANCH   8  28
TORSDOF 5
