REMARK  Name = ZINC00602803
REMARK                            x       y       z     vdW  Elec       q    Type
REMARK                         _______ _______ _______ _____ _____    ______ ____
ROOT
ATOM      1  C   LIG    1        3.501   1.817   1.149  0.00  0.00    +0.077 A 
ATOM      2  C   LIG    1        4.256   0.721   0.762  0.00  0.00    +0.149 A 
ATOM      3  C   LIG    1        5.571   0.769   0.412  0.00  0.00    +0.055 A 
ATOM      4  C   LIG    1        6.309   1.955   0.503  0.00  0.00    +0.034 A 
ATOM      5  C   LIG    1        7.692   1.888   0.072  0.00  0.00    +0.053 A 
ATOM      6  C   LIG    1        8.133   0.631  -0.448  0.00  0.00    +0.120 A 
ATOM      7  C   LIG    1        7.272  -0.463  -0.426  0.00  0.00    +0.194 A 
ATOM      8  C   LIG    1        5.567   3.038   1.061  0.00  0.00    +0.103 A 
ATOM      9  N   LIG    1        6.019  -0.402  -0.009  0.00  0.00    -0.309 NA
ATOM     10  C   LIG    1        4.179   3.012   1.322  0.00  0.00    +0.056 A 
ENDROOT
BRANCH  10  11
ATOM     11  N   LIG    1        3.542   4.221   1.692  0.00  0.00    -0.270 N 
ATOM     12  H   LIG    1        2.870   4.193   2.457  0.00  0.00    +0.210 HD
ATOM     13  C   LIG    1        3.602   5.405   0.972  0.00  0.00    +0.179 C 
ATOM     14  O   LIG    1        3.154   6.471   1.379  0.00  0.00    -0.371 OA
BRANCH  13  15
ATOM     15  C   LIG    1        4.242   5.302  -0.396  0.00  0.00    +0.140 C 
ATOM     16  C   LIG    1        4.714   6.354  -1.100  0.00  0.00    +0.023 C 
BRANCH  16  17
ATOM     17  C   LIG    1        5.934   6.323  -2.125  0.00  0.00    +0.145 C 
BRANCH  17  18
ATOM     18  N   LIG    1        5.666   6.246  -3.507  0.00  0.00    +0.426 N 
ATOM     19  H   LIG    1        6.605   6.210  -3.943  0.00  0.00    +0.131 HD
ATOM     20  C   LIG    1        5.027   7.533  -3.796  0.00  0.00    +0.154 C 
ATOM     21  C   LIG    1        4.985   4.953  -3.740  0.00  0.00    +0.154 C 
ENDBRANCH  17  18
ENDBRANCH  16  17
ENDBRANCH  13  15
ENDBRANCH  10  11
BRANCH   5  22
ATOM     22  N   LIG    1        8.609   3.005   0.122  0.00  0.00    -0.329 N 
ATOM     23  H   LIG    1        9.565   2.708   0.304  0.00  0.00    +0.187 HD
BRANCH  22  24
ATOM     24  C   LIG    1        8.475   4.403   0.222  0.00  0.00    -0.008 A 
ATOM     25  C   LIG    1        7.369   5.037  -0.207  0.00  0.00    +0.061 A 
ATOM     26  C   LIG    1        7.187   6.432   0.027  0.00  0.00    +0.104 A 
ATOM     27  C   LIG    1        8.154   7.301   0.327  0.00  0.00    +0.120 A 
ATOM     28  F   LIG    1        7.886   8.609   0.171  0.00  0.00    -0.280 F 
ATOM     29  C   LIG    1        9.232   6.714   0.866  0.00  0.00    +0.085 A 
ATOM     30 CL   LIG    1       10.287   7.747   1.706  0.00  0.00    -0.109 Cl
ATOM     31  C   LIG    1        9.361   5.282   0.854  0.00  0.00    +0.105 A 
ENDBRANCH  22  24
ENDBRANCH   5  22
BRANCH   6  32
ATOM     32  C   LIG    1        9.364   0.348  -1.014  0.00  0.00    +0.103 C 
ATOM     33  N   LIG    1       10.388  -0.061  -1.555  0.00  0.00    -0.272 NA
ENDBRANCH   6  32
BRANCH   1  34
ATOM     34  O   LIG    1        2.136   1.731   1.223  0.00  0.00    -0.572 OA
BRANCH  34  36
ATOM     35  C   LIG    1        1.465  -0.364   0.007  0.00  0.00    +0.093 C 
ATOM     36  C   LIG    1        1.620   0.382   1.346  0.00  0.00    +0.256 C 
ENDBRANCH  34  36
ENDBRANCH   1  34
TORSDOF 9
