REMARK  Name = ZINC19632618
REMARK                            x       y       z     vdW  Elec       q    Type
REMARK                         _______ _______ _______ _____ _____    ______ ____
ROOT
ATOM      1  C   LIG    1       -0.441   0.235  -1.688  0.00  0.00    +0.087 C 
ATOM      2  C   LIG    1       -0.606  -1.190  -1.241  0.00  0.00    -0.053 A 
ATOM      3  C   LIG    1        0.457  -2.064  -1.526  0.00  0.00    +0.024 A 
ATOM      4  C   LIG    1        0.468  -3.368  -1.045  0.00  0.00    +0.047 A 
ATOM      5  C   LIG    1       -0.569  -3.812  -0.241  0.00  0.00    +0.001 A 
ATOM      6  C   LIG    1       -1.660  -2.968  -0.024  0.00  0.00    +0.086 A 
ATOM      7  C   LIG    1       -1.746  -1.671  -0.568  0.00  0.00    +0.002 A 
ENDROOT
BRANCH   5   8
ATOM      8  N   LIG    1       -0.581  -5.068   0.392  0.00  0.00    -0.282 N 
ATOM      9  H   LIG    1       -1.397  -5.257   0.956  0.00  0.00    +0.207 HD
ATOM     10  C   LIG    1        0.394  -6.042   0.309  0.00  0.00    +0.188 C 
ATOM     11  O   LIG    1        1.442  -5.987  -0.351  0.00  0.00    -0.367 OA
BRANCH  10  12
ATOM     12  C   LIG    1        0.143  -7.288   1.069  0.00  0.00    +0.042 A 
ATOM     13  C   LIG    1       -0.621  -7.305   2.243  0.00  0.00    +0.050 A 
ATOM     14  C   LIG    1       -0.811  -8.502   2.937  0.00  0.00    +0.020 A 
ATOM     15  C   LIG    1       -0.230  -9.694   2.482  0.00  0.00    -0.064 A 
ATOM     16  C   LIG    1        0.513  -9.673   1.289  0.00  0.00    +0.020 A 
ATOM     17  C   LIG    1        0.705  -8.479   0.597  0.00  0.00    +0.050 A 
BRANCH  15  18
ATOM     18  C   LIG    1       -0.400 -10.982   3.262  0.00  0.00    +0.149 C 
BRANCH  18  19
ATOM     19  N   LIG    1        0.880 -11.586   3.665  0.00  0.00    -0.335 NA
ATOM     20  C   LIG    1        0.758 -12.960   4.163  0.00  0.00    +0.127 C 
ATOM     21  C   LIG    1        0.383 -13.142   5.649  0.00  0.00    +0.127 C 
ATOM     22  N   LIG    1        1.120 -12.208   6.595  0.00  0.00    +0.427 N 
ATOM     23  H   LIG    1        0.482 -12.083   7.392  0.00  0.00    +0.132 HD
ATOM     24  C   LIG    1        2.350 -12.816   7.209  0.00  0.00    +0.155 C 
ATOM     25  C   LIG    1        1.340 -10.805   6.053  0.00  0.00    +0.127 C 
ATOM     26  C   LIG    1        1.715 -10.777   4.561  0.00  0.00    +0.127 C 
ENDBRANCH  18  19
ENDBRANCH  15  18
ENDBRANCH  10  12
ENDBRANCH   5   8
BRANCH   7  27
ATOM     27  N   LIG    1       -2.863  -0.841  -0.349  0.00  0.00    -0.291 N 
ATOM     28  H   LIG    1       -2.944  -0.023  -0.936  0.00  0.00    +0.205 HD
BRANCH  27  29
ATOM     29  C   LIG    1       -4.109  -1.106   0.226  0.00  0.00    +0.142 A 
ATOM     30  N   LIG    1       -4.970  -0.086   0.336  0.00  0.00    -0.270 NA
ATOM     31  C   LIG    1       -6.158  -0.353   0.916  0.00  0.00    +0.160 A 
ATOM     32  C   LIG    1       -6.533  -1.602   1.350  0.00  0.00    +0.106 A 
ATOM     33  C   LIG    1       -5.610  -2.606   1.170  0.00  0.00    +0.060 A 
ATOM     34  N   LIG    1       -4.409  -2.349   0.627  0.00  0.00    -0.252 NA
BRANCH  33  35
ATOM     35  C   LIG    1       -5.837  -4.014   1.537  0.00  0.00    +0.015 A 
ATOM     36  C   LIG    1       -5.208  -5.080   0.868  0.00  0.00    +0.047 A 
ATOM     37  C   LIG    1       -5.462  -6.402   1.238  0.00  0.00    +0.046 A 
ATOM     38  C   LIG    1       -6.338  -6.631   2.282  0.00  0.00    +0.124 A 
ATOM     39  N   LIG    1       -6.952  -5.648   2.970  0.00  0.00    -0.337 NA
ATOM     40  C   LIG    1       -6.687  -4.377   2.580  0.00  0.00    +0.151 A 
ENDBRANCH  33  35
ENDBRANCH  27  29
ENDBRANCH   7  27
TORSDOF 7
