REMARK  Name = ZINC18710082
REMARK                            x       y       z     vdW  Elec       q    Type
REMARK                         _______ _______ _______ _____ _____    ______ ____
ROOT
ATOM      1  N   LIG    1        5.553  -3.821   2.685  0.00  0.00    -0.280 N 
ATOM      2  H   LIG    1        5.472  -3.141   1.931  0.00  0.00    +0.208 HD
ATOM      3  C   LIG    1        4.644  -3.716   3.725  0.00  0.00    +0.204 C 
ATOM      4  O   LIG    1        4.612  -4.404   4.740  0.00  0.00    -0.364 OA
ENDROOT
BRANCH   1  13
ATOM      5  C   LIG    1       10.616  -7.899   2.988  0.00  0.00    +0.042 C 
ATOM      6  C   LIG    1        9.637  -7.660   1.836  0.00  0.00    -0.012 C 
ATOM      7  C   LIG    1        9.064  -8.985   1.323  0.00  0.00    +0.042 C 
ATOM      8  C   LIG    1       10.276  -6.824   0.691  0.00  0.00    +0.135 C 
ATOM      9  N   LIG    1        9.256  -5.878   0.185  0.00  0.00    -0.373 N 
ATOM     10  H   LIG    1        9.625  -4.986  -0.136  0.00  0.00    +0.166 HD
ATOM     11  C   LIG    1        8.386  -5.719   1.290  0.00  0.00    -0.018 A 
ATOM     12  C   LIG    1        7.388  -4.764   1.422  0.00  0.00    +0.082 A 
ATOM     13  C   LIG    1        6.567  -4.797   2.561  0.00  0.00    +0.001 A 
ATOM     14  C   LIG    1        6.762  -5.804   3.523  0.00  0.00    +0.048 A 
ATOM     15  C   LIG    1        7.735  -6.783   3.362  0.00  0.00    +0.029 A 
ATOM     16  C   LIG    1        8.533  -6.729   2.239  0.00  0.00    -0.044 A 
ENDBRANCH   1  13
BRANCH   3  17
ATOM     17  C   LIG    1        3.608  -2.662   3.609  0.00  0.00    +0.099 A 
ATOM     18  C   LIG    1        3.089  -2.163   4.816  0.00  0.00    +0.075 A 
ATOM     19  C   LIG    1        2.086  -1.211   4.798  0.00  0.00    +0.052 A 
ATOM     20  C   LIG    1        1.633  -0.791   3.562  0.00  0.00    +0.137 A 
ATOM     21  N   LIG    1        2.110  -1.256   2.384  0.00  0.00    -0.301 NA
ATOM     22  C   LIG    1        3.085  -2.198   2.395  0.00  0.00    +0.084 A 
BRANCH  22  23
ATOM     23  N   LIG    1        3.600  -2.655   1.162  0.00  0.00    -0.341 N 
ATOM     24  H   LIG    1        3.607  -3.676   1.173  0.00  0.00    +0.178 HD
BRANCH  23  25
ATOM     25  C   LIG    1        2.897  -2.178  -0.024  0.00  0.00    +0.180 C 
BRANCH  25  26
ATOM     26  C   LIG    1        3.851  -2.172  -1.194  0.00  0.00    -0.047 A 
ATOM     27  C   LIG    1        4.619  -1.032  -1.460  0.00  0.00    +0.053 A 
ATOM     28  C   LIG    1        5.443  -1.026  -2.573  0.00  0.00    +0.125 A 
ATOM     29  N   LIG    1        5.566  -2.071  -3.418  0.00  0.00    -0.341 NA
ATOM     30  C   LIG    1        4.842  -3.173  -3.128  0.00  0.00    +0.125 A 
ATOM     31  C   LIG    1        3.987  -3.275  -2.040  0.00  0.00    +0.053 A 
ENDBRANCH  25  26
ENDBRANCH  23  25
ENDBRANCH  22  23
ENDBRANCH   3  17
TORSDOF 5
