REMARK  Name = ZINC11617039
REMARK                            x       y       z     vdW  Elec       q    Type
REMARK                         _______ _______ _______ _____ _____    ______ ____
ROOT
ATOM      1  C   LIG    1        6.617  -2.043  -0.209  0.00  0.00    +0.117 A 
ATOM      2  C   LIG    1        7.396  -0.900  -0.036  0.00  0.00    +0.194 A 
ATOM      3  C   LIG    1        8.611  -1.000   0.616  0.00  0.00    +0.310 A 
ATOM      4  N   LIG    1        9.045  -2.193   1.009  0.00  0.00    -0.217 N 
ATOM      5  H   LIG    1        9.904  -2.306   1.536  0.00  0.00    +0.496 HD
ATOM      6  C   LIG    1        8.348  -3.300   0.741  0.00  0.00    +0.220 A 
ATOM      7  N   LIG    1        7.119  -3.255   0.162  0.00  0.00    -0.180 NA
ENDROOT
BRANCH   1   8
ATOM      8  N   LIG    1        5.331  -1.908  -0.802  0.00  0.00    -0.316 N 
ATOM      9  C   LIG    1        4.742  -3.134  -1.365  0.00  0.00    +0.195 C 
BRANCH   8  12
ATOM     10  C   LIG    1        2.546   0.530  -1.857  0.00  0.00    +0.050 A 
ATOM     11  C   LIG    1        3.481  -0.538  -1.801  0.00  0.00    +0.051 A 
ATOM     12  C   LIG    1        4.428  -0.784  -0.733  0.00  0.00    -0.001 A 
ATOM     13  C   LIG    1        4.466   0.100   0.383  0.00  0.00    +0.112 A 
ATOM     14  C   LIG    1        3.576   1.196   0.341  0.00  0.00    +0.070 A 
ATOM     15  N   LIG    1        3.419   2.207   1.209  0.00  0.00    -0.261 NA
ATOM     16  N   LIG    1        2.435   2.975   0.681  0.00  0.00    -0.338 N 
ATOM     17  C   LIG    1        2.090   4.204   1.364  0.00  0.00    +0.249 C 
ATOM     18  C   LIG    1        1.906   2.484  -0.492  0.00  0.00    +0.005 A 
ATOM     19  C   LIG    1        0.772   3.127  -1.207  0.00  0.00    +0.131 C 
ATOM     20  C   LIG    1        2.659   1.362  -0.751  0.00  0.00    +0.021 A 
ENDBRANCH   8  12
ENDBRANCH   1   8
BRANCH   6  21
ATOM     21  N   LIG    1        8.925  -4.511   1.131  0.00  0.00    -0.255 N 
ATOM     22  H   LIG    1        8.282  -5.294   1.033  0.00  0.00    +0.227 HD
BRANCH  21  23
ATOM     23  C   LIG    1       10.286  -4.869   1.249  0.00  0.00    +0.018 A 
ATOM     24  C   LIG    1       11.305  -4.222   0.536  0.00  0.00    +0.051 A 
ATOM     25  C   LIG    1       12.655  -4.537   0.744  0.00  0.00    +0.030 A 
ATOM     26  C   LIG    1       13.040  -5.515   1.669  0.00  0.00    -0.023 A 
ATOM     27  C   LIG    1       14.507  -5.809   1.845  0.00  0.00    +0.093 C 
ATOM     28  C   LIG    1       12.025  -6.185   2.373  0.00  0.00    +0.113 A 
ATOM     29  C   LIG    1       10.663  -5.861   2.163  0.00  0.00    +0.125 A 
BRANCH  28  30
ATOM     30  S   LIG    1       12.403  -7.488   3.531  0.00  0.00    -0.010 S 
ATOM     31  O   LIG    1       13.253  -8.457   2.875  0.00  0.00    -0.243 OA
ATOM     32  O   LIG    1       11.192  -7.856   4.217  0.00  0.00    -0.243 OA
BRANCH  30  33
ATOM     33  N   LIG    1       13.346  -6.712   4.683  0.00  0.00    -0.201 NA
ATOM     34  H   LIG    1       14.282  -7.123   4.690  0.00  0.00    +0.204 HD
ATOM     35  H   LIG    1       12.891  -6.764   5.597  0.00  0.00    +0.204 HD
ENDBRANCH  30  33
ENDBRANCH  28  30
ENDBRANCH  21  23
ENDBRANCH   6  21
TORSDOF 6
