REMARK  Name = ZINC13132888
REMARK                            x       y       z     vdW  Elec       q    Type
REMARK                         _______ _______ _______ _____ _____    ______ ____
ROOT
ATOM      1  N   LIG    1        1.628   1.647  -1.538  0.00  0.00    -0.294 N 
ATOM      2  C   LIG    1        2.962   1.880  -1.759  0.00  0.00    +0.134 A 
ATOM      3  C   LIG    1        3.081   3.216  -2.117  0.00  0.00    +0.109 A 
ATOM      4  C   LIG    1        4.369   3.642  -2.471  0.00  0.00    +0.093 A 
ATOM      5  N   LIG    1        5.396   2.771  -2.394  0.00  0.00    -0.265 NA
ATOM      6  C   LIG    1        5.145   1.515  -1.994  0.00  0.00    +0.279 A 
ATOM      7  C   LIG    1        1.764   3.747  -1.958  0.00  0.00    +0.074 A 
ATOM      8  N   LIG    1        3.962   0.986  -1.669  0.00  0.00    -0.251 NA
ATOM      9  N   LIG    1        0.895   2.788  -1.580  0.00  0.00    -0.252 NA
ENDROOT
BRANCH   1  11
ATOM     10  C   LIG    1        0.954   0.105   0.273  0.00  0.00    +0.075 C 
ATOM     11  C   LIG    1        0.967   0.359  -1.245  0.00  0.00    +0.024 C 
ATOM     12  C   LIG    1       -0.493   0.368  -1.757  0.00  0.00    +0.075 C 
ATOM     13  C   LIG    1        1.663  -0.837  -1.935  0.00  0.00    +0.075 C 
ENDBRANCH   1  11
BRANCH   4  14
ATOM     14  N   LIG    1        4.701   4.901  -2.961  0.00  0.00    -0.345 N 
ATOM     15  H   LIG    1        5.659   4.849  -3.298  0.00  0.00    +0.169 HD
ATOM     16  H   LIG    1        4.056   5.192  -3.689  0.00  0.00    +0.169 HD
ENDBRANCH   4  14
BRANCH   7  17
ATOM     17  C   LIG    1        1.260   5.165  -2.000  0.00  0.00    +0.175 C 
BRANCH  17  18
ATOM     18  C   LIG    1        1.491   5.794  -3.363  0.00  0.00    -0.050 A 
ATOM     19  C   LIG    1        2.249   6.984  -3.390  0.00  0.00    +0.014 A 
ATOM     20  C   LIG    1        2.575   7.607  -4.592  0.00  0.00    +0.007 A 
ATOM     21  C   LIG    1        2.118   7.072  -5.788  0.00  0.00    +0.020 A 
ATOM     22  C   LIG    1        1.279   5.953  -5.800  0.00  0.00    -0.046 A 
ATOM     23  C   LIG    1        0.762   5.486  -7.016  0.00  0.00    +0.020 A 
ATOM     24  C   LIG    1       -0.123   4.413  -7.059  0.00  0.00    +0.005 A 
ATOM     25  C   LIG    1       -0.498   3.787  -5.877  0.00  0.00    +0.005 A 
ATOM     26  C   LIG    1        0.026   4.226  -4.658  0.00  0.00    +0.021 A 
ATOM     27  C   LIG    1        0.932   5.305  -4.577  0.00  0.00    -0.041 A 
ENDBRANCH  17  18
ENDBRANCH   7  17
TORSDOF 4
