REMARK  Name = ZINC19632618
REMARK                            x       y       z     vdW  Elec       q    Type
REMARK                         _______ _______ _______ _____ _____    ______ ____
ROOT
ATOM      1  C   LIG    1        1.054  -1.086   0.407  0.00  0.00    +0.087 C 
ATOM      2  C   LIG    1        0.679  -0.534  -0.940  0.00  0.00    -0.053 A 
ATOM      3  C   LIG    1       -0.059  -1.349  -1.815  0.00  0.00    +0.024 A 
ATOM      4  C   LIG    1       -0.435  -0.896  -3.078  0.00  0.00    +0.047 A 
ATOM      5  C   LIG    1       -0.087   0.383  -3.491  0.00  0.00    +0.001 A 
ATOM      6  C   LIG    1        0.637   1.197  -2.618  0.00  0.00    +0.086 A 
ATOM      7  C   LIG    1        1.049   0.765  -1.340  0.00  0.00    +0.002 A 
ENDROOT
BRANCH   5   8
ATOM      8  N   LIG    1       -0.443   0.896  -4.758  0.00  0.00    -0.282 N 
ATOM      9  H   LIG    1       -0.457   1.906  -4.840  0.00  0.00    +0.207 HD
ATOM     10  C   LIG    1       -0.676   0.134  -5.882  0.00  0.00    +0.188 C 
ATOM     11  O   LIG    1       -0.700  -1.104  -5.944  0.00  0.00    -0.367 OA
BRANCH  10  12
ATOM     12  C   LIG    1       -0.877   0.866  -7.156  0.00  0.00    +0.043 A 
ATOM     13  C   LIG    1       -0.196   2.048  -7.471  0.00  0.00    +0.052 A 
ATOM     14  C   LIG    1       -0.344   2.627  -8.740  0.00  0.00    +0.026 A 
ATOM     15  C   LIG    1       -1.187   2.045  -9.700  0.00  0.00    -0.068 A 
ATOM     16  C   LIG    1       -1.889   0.876  -9.361  0.00  0.00    +0.026 A 
ATOM     17  C   LIG    1       -1.724   0.287  -8.109  0.00  0.00    +0.052 A 
BRANCH  15  18
ATOM     18  C   LIG    1       -1.325   2.635 -11.080  0.00  0.00    +0.163 C 
BRANCH  18  19
ATOM     19  N   LIG    1       -0.331   2.116 -12.098  0.00  0.00    +0.431 N 
ATOM     20  H   LIG    1        0.606   2.369 -11.760  0.00  0.00    +0.137 HD
ATOM     21  C   LIG    1       -0.339   0.600 -12.239  0.00  0.00    +0.131 C 
ATOM     22  C   LIG    1        0.676   0.146 -13.306  0.00  0.00    +0.124 C 
ATOM     23  N   LIG    1        0.524   0.791 -14.619  0.00  0.00    -0.346 NA
ATOM     24  C   LIG    1       -0.617   0.259 -15.366  0.00  0.00    +0.132 C 
ATOM     25  C   LIG    1        0.481   2.256 -14.488  0.00  0.00    +0.124 C 
ATOM     26  C   LIG    1       -0.527   2.793 -13.450  0.00  0.00    +0.131 C 
ENDBRANCH  18  19
ENDBRANCH  15  18
ENDBRANCH  10  12
ENDBRANCH   5   8
BRANCH   7  27
ATOM     27  N   LIG    1        1.873   1.557  -0.519  0.00  0.00    -0.291 N 
ATOM     28  H   LIG    1        1.936   1.326   0.460  0.00  0.00    +0.205 HD
BRANCH  27  29
ATOM     29  C   LIG    1        2.719   2.622  -0.826  0.00  0.00    +0.142 A 
ATOM     30  N   LIG    1        3.353   3.219   0.192  0.00  0.00    -0.270 NA
ATOM     31  C   LIG    1        4.178   4.238  -0.120  0.00  0.00    +0.160 A 
ATOM     32  C   LIG    1        4.401   4.674  -1.404  0.00  0.00    +0.106 A 
ATOM     33  C   LIG    1        3.720   4.005  -2.395  0.00  0.00    +0.060 A 
ATOM     34  N   LIG    1        2.887   2.992  -2.103  0.00  0.00    -0.252 NA
BRANCH  33  35
ATOM     35  C   LIG    1        3.830   4.319  -3.827  0.00  0.00    +0.015 A 
ATOM     36  C   LIG    1        4.998   4.832  -4.400  0.00  0.00    +0.047 A 
ATOM     37  C   LIG    1        5.057   5.100  -5.766  0.00  0.00    +0.046 A 
ATOM     38  C   LIG    1        3.938   4.846  -6.540  0.00  0.00    +0.124 A 
ATOM     39  N   LIG    1        2.783   4.350  -6.050  0.00  0.00    -0.337 NA
ATOM     40  C   LIG    1        2.767   4.101  -4.713  0.00  0.00    +0.151 A 
ENDBRANCH  33  35
ENDBRANCH  27  29
ENDBRANCH   7  27
TORSDOF 7
