REMARK  Name = ZINC71295348
REMARK                            x       y       z     vdW  Elec       q    Type
REMARK                         _______ _______ _______ _____ _____    ______ ____
ROOT
ATOM      1  C   LIG    1        5.395   6.701   6.087  0.00  0.00    +0.094 C 
ATOM      2  C   LIG    1        4.439   6.044   5.131  0.00  0.00    -0.011 A 
ATOM      3  C   LIG    1        4.469   4.658   5.017  0.00  0.00    +0.102 A 
ATOM      4  C   LIG    1        3.677   4.014   4.076  0.00  0.00    +0.076 A 
ATOM      5  N   LIG    1        2.838   4.705   3.274  0.00  0.00    -0.262 NA
ATOM      6  C   LIG    1        2.752   6.056   3.387  0.00  0.00    +0.101 A 
ATOM      7  C   LIG    1        3.571   6.762   4.291  0.00  0.00    +0.121 A 
ENDROOT
BRANCH   4   8
ATOM      8  N   LIG    1        3.766   2.628   3.906  0.00  0.00    -0.284 N 
ATOM      9  H   LIG    1        3.538   2.358   2.959  0.00  0.00    +0.206 HD
BRANCH   8  10
ATOM     10  C   LIG    1        4.139   1.665   4.773  0.00  0.00    +0.098 A 
ATOM     11  C   LIG    1        3.936   1.714   6.175  0.00  0.00    +0.133 A 
ATOM     12  C   LIG    1        4.469   0.546   6.671  0.00  0.00    -0.001 A 
ATOM     13  C   LIG    1        4.586   0.033   8.053  0.00  0.00    +0.127 C 
ATOM     14  N   LIG    1        4.902  -0.140   5.571  0.00  0.00    -0.325 N 
ATOM     15  H   LIG    1        5.336  -1.056   5.534  0.00  0.00    +0.246 HD
ATOM     16  N   LIG    1        4.694   0.507   4.412  0.00  0.00    -0.244 NA
ENDBRANCH   8  10
ENDBRANCH   4   8
BRANCH   6  17
ATOM     17  N   LIG    1        1.787   6.740   2.617  0.00  0.00    -0.345 N 
ATOM     18  H   LIG    1        2.221   7.520   2.129  0.00  0.00    +0.177 HD
BRANCH  17  19
ATOM     19  C   LIG    1        0.923   5.931   1.735  0.00  0.00    +0.061 C 
ATOM     20  C   LIG    1        0.509   6.790   0.532  0.00  0.00    +0.052 C 
BRANCH  19  21
ATOM     21  C   LIG    1       -0.314   5.442   2.524  0.00  0.00    +0.037 C 
BRANCH  21  22
ATOM     22  C   LIG    1       -1.260   4.575   1.685  0.00  0.00    +0.020 C 
BRANCH  22  23
ATOM     23  C   LIG    1       -2.475   4.101   2.492  0.00  0.00    +0.055 C 
BRANCH  23  24
ATOM     24  C   LIG    1       -3.466   3.224   1.699  0.00  0.00    -0.000 C 
ATOM     25  C   LIG    1       -2.821   1.910   1.255  0.00  0.00    +0.076 C 
ATOM     26  C   LIG    1       -4.058   3.968   0.499  0.00  0.00    +0.076 C 
BRANCH  24  27
ATOM     27  O   LIG    1       -4.545   2.905   2.587  0.00  0.00    -0.455 OA
ATOM     28  H   LIG    1       -5.242   2.464   2.070  0.00  0.00    +0.236 HD
ENDBRANCH  24  27
ENDBRANCH  23  24
ENDBRANCH  22  23
ENDBRANCH  21  22
ENDBRANCH  19  21
ENDBRANCH  17  19
ENDBRANCH   6  17
BRANCH   7  29
ATOM     29  C   LIG    1        3.562   8.189   4.355  0.00  0.00    +0.104 C 
ATOM     30  N   LIG    1        3.640   9.353   4.432  0.00  0.00    -0.272 NA
ENDBRANCH   7  29
TORSDOF 10
