REMARK  Name = ZINC03834198
REMARK                            x       y       z     vdW  Elec       q    Type
REMARK                         _______ _______ _______ _____ _____    ______ ____
ROOT
ATOM      1  C   LIG    1       -3.839   5.894   6.358  0.00  0.00    +0.103 A 
ATOM      2  C   LIG    1       -3.298   5.552   7.608  0.00  0.00    +0.162 A 
ATOM      3  C   LIG    1       -3.381   4.244   8.136  0.00  0.00    +0.072 A 
ATOM      4  C   LIG    1       -4.057   3.271   7.304  0.00  0.00    +0.064 A 
ATOM      5  C   LIG    1       -3.980   1.915   7.625  0.00  0.00    +0.092 A 
ATOM      6  N   LIG    1       -3.530   1.582   8.817  0.00  0.00    -0.266 NA
ATOM      7  C   LIG    1       -3.054   2.580   9.611  0.00  0.00    +0.268 A 
ATOM      8  C   LIG    1       -4.809   3.669   6.349  0.00  0.00    +0.147 A 
ATOM      9  N   LIG    1       -2.920   3.889   9.282  0.00  0.00    -0.283 NA
ATOM     10  C   LIG    1       -4.646   4.889   5.743  0.00  0.00    +0.099 A 
ENDROOT
BRANCH   5  11
ATOM     11  N   LIG    1       -4.402   0.866   6.770  0.00  0.00    -0.300 N 
ATOM     12  H   LIG    1       -4.401  -0.006   7.335  0.00  0.00    +0.198 HD
BRANCH  11  13
ATOM     13  C   LIG    1       -4.689   0.588   5.412  0.00  0.00    +0.049 A 
ATOM     14  C   LIG    1       -4.145   1.259   4.328  0.00  0.00    +0.068 A 
ATOM     15  C   LIG    1       -4.729   1.181   3.019  0.00  0.00    +0.052 A 
ATOM     16  C   LIG    1       -5.896   0.475   2.804  0.00  0.00    +0.013 A 
ATOM     17 BR   LIG    1       -6.923   0.760   1.242  0.00  0.00    -0.081 Br
ATOM     18  C   LIG    1       -6.286  -0.401   3.791  0.00  0.00    +0.130 A 
ATOM     19  C   LIG    1       -5.663  -0.348   5.053  0.00  0.00    +0.118 A 
ATOM     20  F   LIG    1       -6.031  -1.254   5.969  0.00  0.00    -0.279 F 
ENDBRANCH  11  13
ENDBRANCH   5  11
BRANCH  10  21
ATOM     21  O   LIG    1       -5.284   4.898   4.527  0.00  0.00    -0.568 OA
ATOM     22  C   LIG    1       -5.223   3.677   3.828  0.00  0.00    +0.355 C 
ENDBRANCH  10  21
BRANCH   1  23
ATOM     23  O   LIG    1       -3.427   7.114   5.877  0.00  0.00    -0.562 OA
BRANCH  23  24
ATOM     24  C   LIG    1       -4.070   7.904   4.852  0.00  0.00    +0.274 C 
BRANCH  24  30
ATOM     25  C   LIG    1       -5.131   5.062  -0.104  0.00  0.00    +0.153 C 
ATOM     26  N   LIG    1       -4.800   6.052   0.985  0.00  0.00    +0.425 N 
ATOM     27  H   LIG    1       -4.127   6.750   0.669  0.00  0.00    +0.130 HD
ATOM     28  C   LIG    1       -6.055   6.714   1.608  0.00  0.00    +0.104 C 
ATOM     29  C   LIG    1       -5.561   7.723   2.662  0.00  0.00    +0.055 C 
ATOM     30  C   LIG    1       -4.687   7.097   3.744  0.00  0.00    +0.048 C 
ATOM     31  C   LIG    1       -3.572   6.163   3.160  0.00  0.00    +0.055 C 
ATOM     32  C   LIG    1       -4.125   5.346   2.043  0.00  0.00    +0.104 C 
ENDBRANCH  24  30
ENDBRANCH  23  24
ENDBRANCH   1  23
TORSDOF 6
