REMARK  Name = ZINC22448983
REMARK                            x       y       z     vdW  Elec       q    Type
REMARK                         _______ _______ _______ _____ _____    ______ ____
ROOT
ATOM      1  C   LIG    1        3.255  -2.768  -4.640  0.00  0.00    +0.103 A 
ATOM      2  C   LIG    1        2.295  -2.680  -3.636  0.00  0.00    +0.159 A 
ATOM      3  C   LIG    1        1.583  -3.765  -3.197  0.00  0.00    +0.058 A 
ATOM      4  C   LIG    1        1.851  -5.050  -3.700  0.00  0.00    +0.041 A 
ATOM      5  C   LIG    1        1.158  -6.141  -3.064  0.00  0.00    +0.056 A 
ATOM      6  C   LIG    1        0.294  -5.842  -1.999  0.00  0.00    +0.120 A 
ATOM      7  C   LIG    1        0.051  -4.520  -1.680  0.00  0.00    +0.194 A 
ATOM      8  C   LIG    1        2.802  -5.147  -4.764  0.00  0.00    +0.139 A 
ATOM      9  N   LIG    1        0.679  -3.486  -2.265  0.00  0.00    -0.308 NA
ATOM     10  C   LIG    1        3.518  -4.021  -5.219  0.00  0.00    +0.098 A 
ENDROOT
BRANCH   5  11
ATOM     11  N   LIG    1        1.487  -7.458  -3.488  0.00  0.00    -0.320 N 
ATOM     12  H   LIG    1        2.486  -7.645  -3.391  0.00  0.00    +0.188 HD
BRANCH  11  13
ATOM     13  C   LIG    1        0.756  -8.670  -3.533  0.00  0.00    +0.034 A 
ATOM     14  C   LIG    1       -0.617  -8.697  -3.793  0.00  0.00    +0.139 A 
ATOM     15  C   LIG    1       -1.325  -9.907  -3.892  0.00  0.00    +0.079 A 
ATOM     16  C   LIG    1       -0.620 -11.119  -3.805  0.00  0.00    +0.082 A 
ATOM     17 CL   LIG    1       -1.390 -12.652  -4.017  0.00  0.00    -0.107 Cl
ATOM     18  C   LIG    1        0.753 -11.118  -3.550  0.00  0.00    +0.123 A 
ATOM     19  C   LIG    1        1.424  -9.904  -3.401  0.00  0.00    +0.058 A 
ATOM     20 CL   LIG    1        3.121  -9.934  -3.064  0.00  0.00    -0.118 Cl
BRANCH  15  21
ATOM     21  O   LIG    1       -2.680  -9.949  -4.123  0.00  0.00    -0.574 OA
ATOM     22  C   LIG    1       -3.413  -8.805  -3.677  0.00  0.00    +0.353 C 
ENDBRANCH  15  21
ENDBRANCH  11  13
ENDBRANCH   5  11
BRANCH   6  23
ATOM     23  C   LIG    1       -0.251  -6.809  -1.082  0.00  0.00    +0.103 C 
ATOM     24  N   LIG    1       -0.684  -7.478  -0.264  0.00  0.00    -0.272 NA
ENDBRANCH   6  23
BRANCH  10  25
ATOM     25  O   LIG    1        4.427  -4.049  -6.245  0.00  0.00    -0.568 OA
ATOM     26  C   LIG    1        5.115  -5.270  -6.516  0.00  0.00    +0.355 C 
ENDBRANCH  10  25
BRANCH   1  27
ATOM     27  O   LIG    1        3.975  -1.657  -5.029  0.00  0.00    -0.562 OA
BRANCH  27  28
ATOM     28  C   LIG    1        3.271  -0.410  -4.899  0.00  0.00    +0.275 C 
BRANCH  28  29
ATOM     29  C   LIG    1        4.194   0.726  -5.312  0.00  0.00    +0.102 C 
BRANCH  29  30
ATOM     30  C   LIG    1        3.517   2.089  -5.142  0.00  0.00    +0.119 C 
BRANCH  30  35
ATOM     31  C   LIG    1        5.700   6.378  -4.043  0.00  0.00    +0.132 C 
ATOM     32  N   LIG    1        4.788   5.354  -3.526  0.00  0.00    -0.346 NA
ATOM     33  C   LIG    1        5.450   4.046  -3.392  0.00  0.00    +0.123 C 
ATOM     34  C   LIG    1        5.718   3.315  -4.722  0.00  0.00    +0.128 C 
ATOM     35  N   LIG    1        4.456   3.200  -5.576  0.00  0.00    +0.429 N 
ATOM     36  H   LIG    1        4.765   2.954  -6.526  0.00  0.00    +0.134 HD
ATOM     37  C   LIG    1        3.787   4.571  -5.716  0.00  0.00    +0.128 C 
ATOM     38  C   LIG    1        3.567   5.237  -4.342  0.00  0.00    +0.123 C 
ENDBRANCH  30  35
ENDBRANCH  29  30
ENDBRANCH  28  29
ENDBRANCH  27  28
ENDBRANCH   1  27
TORSDOF 10
