REMARK  Name = ZINC28950516
REMARK                            x       y       z     vdW  Elec       q    Type
REMARK                         _______ _______ _______ _____ _____    ______ ____
ROOT
ATOM      1  C   LIG    1       -2.024   1.492   4.061  0.00  0.00    +0.083 A 
ATOM      2  C   LIG    1       -2.666   1.655   5.267  0.00  0.00    +0.127 A 
ATOM      3  C   LIG    1       -2.681   2.928   5.782  0.00  0.00    +0.166 A 
ATOM      4  N   LIG    1       -2.087   3.977   5.189  0.00  0.00    -0.268 NA
ATOM      5  C   LIG    1       -1.498   3.746   4.009  0.00  0.00    +0.148 A 
ATOM      6  N   LIG    1       -1.455   2.533   3.427  0.00  0.00    -0.234 NA
ENDROOT
BRANCH   1   7
ATOM      7  N   LIG    1       -2.026   0.253   3.392  0.00  0.00    -0.312 N 
ATOM      8  H   LIG    1       -1.557   0.380   2.498  0.00  0.00    +0.195 HD
BRANCH   7  15
ATOM      9  C   LIG    1       -3.210  -2.000   1.991  0.00  0.00    +0.087 C 
ATOM     10  C   LIG    1       -2.356  -2.166   3.219  0.00  0.00    -0.051 A 
ATOM     11  C   LIG    1       -2.113  -3.470   3.691  0.00  0.00    +0.034 A 
ATOM     12  C   LIG    1       -1.333  -3.682   4.823  0.00  0.00    +0.081 A 
ATOM     13  C   LIG    1       -0.791  -2.591   5.485  0.00  0.00    +0.041 A 
ATOM     14  C   LIG    1       -1.015  -1.288   5.035  0.00  0.00    +0.119 A 
ATOM     15  C   LIG    1       -1.814  -1.053   3.903  0.00  0.00    +0.002 A 
BRANCH  13  16
ATOM     16  O   LIG    1       -0.030  -2.846   6.589  0.00  0.00    -0.563 OA
ATOM     17  H   LIG    1        0.292  -2.003   6.948  0.00  0.00    +0.334 HD
ENDBRANCH  13  16
ENDBRANCH   7  15
ENDBRANCH   1   7
BRANCH   5  18
ATOM     18  N   LIG    1       -0.913   4.868   3.417  0.00  0.00    -0.292 N 
ATOM     19  H   LIG    1       -1.035   5.658   4.036  0.00  0.00    +0.205 HD
BRANCH  18  20
ATOM     20  C   LIG    1       -0.639   5.169   2.075  0.00  0.00    -0.002 A 
ATOM     21  C   LIG    1       -0.910   4.282   1.027  0.00  0.00    +0.044 A 
ATOM     22  C   LIG    1       -0.587   4.592  -0.295  0.00  0.00    +0.018 A 
ATOM     23  C   LIG    1        0.038   5.796  -0.591  0.00  0.00    +0.050 A 
ATOM     24  C   LIG    1        0.348   6.691   0.437  0.00  0.00    +0.047 A 
ATOM     25  C   LIG    1        0.006   6.377   1.764  0.00  0.00    +0.089 A 
BRANCH  24  26
ATOM     26  C   LIG    1        1.018   7.967   0.083  0.00  0.00    +0.177 C 
ATOM     27  N   LIG    1        1.773   8.572   1.043  0.00  0.00    -0.316 N 
ATOM     28  H   LIG    1        2.299   9.389   0.759  0.00  0.00    +0.181 HD
ATOM     29  H   LIG    1        2.059   8.102   1.893  0.00  0.00    +0.181 HD
ATOM     30  O   LIG    1        0.928   8.451  -1.047  0.00  0.00    -0.371 OA
ENDBRANCH  24  26
ENDBRANCH  18  20
ENDBRANCH   5  18
TORSDOF 6
