REMARK  Name = ZINC18825344
REMARK                            x       y       z     vdW  Elec       q    Type
REMARK                         _______ _______ _______ _____ _____    ______ ____
ROOT
ATOM      1  C   LIG    1       -0.844  -0.354  -0.212  0.00  0.00    +0.099 C 
ATOM      2  C   LIG    1       -0.539  -0.399  -1.675  0.00  0.00    -0.011 A 
ATOM      3  C   LIG    1       -0.345  -1.548  -2.433  0.00  0.00    +0.000 A 
ATOM      4  N   LIG    1       -0.170  -1.143  -3.732  0.00  0.00    -0.383 N 
ATOM      5  C   LIG    1       -0.250   0.228  -3.835  0.00  0.00    -0.006 A 
ATOM      6  C   LIG    1       -0.262   0.876  -5.173  0.00  0.00    +0.122 C 
ATOM      7  H   LIG    1       -0.114  -1.771  -4.526  0.00  0.00    +0.197 HD
ATOM      8  C   LIG    1       -0.414   0.740  -2.554  0.00  0.00    +0.072 A 
ENDROOT
BRANCH   3   9
ATOM      9  C   LIG    1       -0.289  -2.921  -2.057  0.00  0.00    +0.098 C 
ATOM     10  C   LIG    1       -0.633  -3.999  -2.782  0.00  0.00    +0.073 C 
ATOM     11  C   LIG    1       -0.601  -5.384  -2.268  0.00  0.00    +0.026 A 
ATOM     12  C   LIG    1       -0.230  -5.950  -1.060  0.00  0.00    +0.118 A 
ATOM     13  C   LIG    1       -0.360  -7.334  -0.923  0.00  0.00    +0.088 A 
ATOM     14  F   LIG    1       -0.021  -7.910   0.238  0.00  0.00    -0.290 F 
ATOM     15  C   LIG    1       -0.842  -8.142  -1.964  0.00  0.00    +0.095 A 
ATOM     16  C   LIG    1       -1.207  -7.571  -3.183  0.00  0.00    +0.066 A 
ATOM     17  C   LIG    1       -1.080  -6.199  -3.301  0.00  0.00    +0.016 A 
ATOM     18  N   LIG    1       -1.399  -5.434  -4.416  0.00  0.00    -0.278 N 
ATOM     19  H   LIG    1       -1.757  -5.786  -5.290  0.00  0.00    +0.208 HD
ATOM     20  C   LIG    1       -1.153  -4.093  -4.192  0.00  0.00    +0.195 C 
ATOM     21  O   LIG    1       -1.295  -3.190  -5.013  0.00  0.00    -0.366 OA
ENDBRANCH   3   9
BRANCH   8  22
ATOM     22  C   LIG    1       -0.583   2.145  -2.178  0.00  0.00    +0.189 C 
ATOM     23  N   LIG    1        0.271   3.053  -2.780  0.00  0.00    -0.310 N 
ATOM     24  H   LIG    1        1.011   2.688  -3.364  0.00  0.00    +0.190 HD
ATOM     25  O   LIG    1       -1.405   2.496  -1.338  0.00  0.00    -0.368 OA
BRANCH  23  26
ATOM     26  C   LIG    1        0.251   4.480  -2.438  0.00  0.00    +0.190 C 
BRANCH  26  27
ATOM     27  C   LIG    1        0.736   4.776  -0.999  0.00  0.00    +0.137 C 
BRANCH  27  28
ATOM     28  O   LIG    1        0.000   4.078   0.010  0.00  0.00    -0.446 OA
ATOM     29  H   LIG    1       -0.816   3.735  -0.422  0.00  0.00    +0.238 HD
ENDBRANCH  27  28
BRANCH  27  30
ATOM     30  C   LIG    1        0.744   6.278  -0.629  0.00  0.00    +0.150 C 
BRANCH  30  31
ATOM     31  N   LIG    1       -0.541   7.017  -0.707  0.00  0.00    -0.332 NA
ATOM     32  C   LIG    1       -1.600   6.487   0.192  0.00  0.00    +0.140 C 
ATOM     33  C   LIG    1       -1.297   6.667   1.689  0.00  0.00    +0.201 C 
ATOM     34  O   LIG    1       -1.108   8.055   2.006  0.00  0.00    -0.459 OA
ATOM     35  C   LIG    1       -0.072   8.630   1.200  0.00  0.00    +0.201 C 
ATOM     36  C   LIG    1       -0.345   8.435  -0.307  0.00  0.00    +0.140 C 
ENDBRANCH  30  31
ENDBRANCH  27  30
ENDBRANCH  26  27
ENDBRANCH  23  26
ENDBRANCH   8  22
TORSDOF 7
