REMARK  Name = ZINC03816310
REMARK                            x       y       z     vdW  Elec       q    Type
REMARK                         _______ _______ _______ _____ _____    ______ ____
ROOT
ATOM      1  C   LIG    1        5.394   0.013   3.070  0.00  0.00    -0.014 A 
ATOM      2  C   LIG    1        5.624   1.210   3.783  0.00  0.00    +0.056 A 
ATOM      3  C   LIG    1        6.064   1.238   5.122  0.00  0.00    +0.078 A 
ATOM      4  C   LIG    1        6.269   0.026   5.781  0.00  0.00    +0.061 A 
ATOM      5  C   LIG    1        6.016  -1.148   5.098  0.00  0.00    +0.040 A 
ATOM      6  N   LIG    1        6.295  -2.132   6.003  0.00  0.00    -0.342 N 
ATOM      7  C   LIG    1        6.732  -1.556   7.177  0.00  0.00    +0.115 A 
ATOM      8  H   LIG    1        6.216  -3.132   5.855  0.00  0.00    +0.212 HD
ATOM      9  N   LIG    1        6.693  -0.235   7.059  0.00  0.00    -0.270 NA
ATOM     10  C   LIG    1        5.567  -1.195   3.775  0.00  0.00    +0.097 A 
ENDROOT
BRANCH   7  11
ATOM     11  C   LIG    1        7.124  -2.404   8.266  0.00  0.00    +0.138 A 
ATOM     12  C   LIG    1        7.587  -1.864   9.424  0.00  0.00    +0.058 A 
ATOM     13  C   LIG    1        7.965  -2.767  10.549  0.00  0.00    +0.071 A 
ATOM     14  C   LIG    1        7.909  -4.156  10.363  0.00  0.00    +0.034 A 
ATOM     15  N   LIG    1        7.455  -4.672   9.148  0.00  0.00    -0.316 N 
ATOM     16  H   LIG    1        7.398  -5.674   9.012  0.00  0.00    +0.223 HD
ATOM     17  C   LIG    1        8.283  -5.054  11.368  0.00  0.00    +0.057 A 
ATOM     18  C   LIG    1        8.718  -4.574  12.599  0.00  0.00    +0.031 A 
ATOM     19  C   LIG    1        8.765  -3.201  12.822  0.00  0.00    +0.093 A 
ATOM     20  C   LIG    1        8.390  -2.316  11.809  0.00  0.00    +0.111 A 
ATOM     21  F   LIG    1        8.429  -1.005  12.095  0.00  0.00    -0.283 F 
ATOM     22  C   LIG    1        7.046  -3.900   8.109  0.00  0.00    +0.220 A 
ATOM     23  O   LIG    1        6.643  -4.431   7.068  0.00  0.00    -0.358 OA
BRANCH  12  24
ATOM     24  N   LIG    1        7.767  -0.503   9.631  0.00  0.00    -0.361 N 
ATOM     25  H   LIG    1        7.283   0.083   8.941  0.00  0.00    +0.161 HD
ATOM     26  H   LIG    1        7.646  -0.187  10.592  0.00  0.00    +0.161 HD
ENDBRANCH  12  24
ENDBRANCH   7  11
BRANCH   1  32
ATOM     27  C   LIG    1        8.171  -1.317  -0.799  0.00  0.00    +0.156 C 
ATOM     28  N   LIG    1        6.840  -0.800  -0.345  0.00  0.00    +0.428 N 
ATOM     29  H   LIG    1        6.258  -0.652  -1.180  0.00  0.00    +0.133 HD
ATOM     30  C   LIG    1        6.969   0.561   0.356  0.00  0.00    +0.135 C 
ATOM     31  C   LIG    1        5.586   1.052   0.840  0.00  0.00    +0.155 C 
ATOM     32  N   LIG    1        4.969   0.038   1.726  0.00  0.00    -0.368 N 
ATOM     33  C   LIG    1        4.756  -1.245   1.020  0.00  0.00    +0.155 C 
ATOM     34  C   LIG    1        6.106  -1.822   0.531  0.00  0.00    +0.135 C 
ENDBRANCH   1  32
TORSDOF 3
