REMARK  Name = ZINC00899870
REMARK                            x       y       z     vdW  Elec       q    Type
REMARK                         _______ _______ _______ _____ _____    ______ ____
ROOT
ATOM      1  C   LIG    1       -1.457  -4.335  -1.571  0.00  0.00    +0.265 C 
ENDROOT
BRANCH   1   2
ATOM      2  C   LIG    1       -2.357  -4.150  -2.819  0.00  0.00    +0.075 C 
ATOM      3  O   LIG    1       -3.569  -3.879  -2.571  0.00  0.00    -0.551 OA
ATOM      4  O   LIG    1       -1.796  -4.303  -3.944  0.00  0.00    -0.551 OA
ENDBRANCH   1   2
BRANCH   1   5
ATOM      5  C   LIG    1       -0.894  -5.758  -1.619  0.00  0.00    +0.156 C 
BRANCH   5  11
ATOM      6  C   LIG    1       -0.429  -6.114   0.861  0.00  0.00    +0.034 A 
ATOM      7  C   LIG    1        0.441  -6.407   1.917  0.00  0.00    +0.099 A 
ATOM      8  C   LIG    1        1.783  -6.679   1.657  0.00  0.00    +0.087 A 
ATOM      9  C   LIG    1        2.254  -6.669   0.346  0.00  0.00    +0.089 A 
ATOM     10  C   LIG    1        1.386  -6.386  -0.710  0.00  0.00    +0.106 A 
ATOM     11  C   LIG    1        0.035  -6.094  -0.463  0.00  0.00    -0.045 A 
BRANCH   8  12
ATOM     12  O   LIG    1        2.645  -6.950   2.684  0.00  0.00    -0.549 OA
ATOM     13  H   LIG    1        2.159  -6.866   3.517  0.00  0.00    +0.339 HD
ENDBRANCH   8  12
BRANCH   9  14
ATOM     14  O   LIG    1        3.575  -6.928   0.101  0.00  0.00    -0.549 OA
ATOM     15  H   LIG    1        3.737  -6.781  -0.844  0.00  0.00    +0.339 HD
ENDBRANCH   9  14
ENDBRANCH   5  11
ENDBRANCH   1   5
BRANCH   1  16
ATOM     16  O   LIG    1       -0.355  -3.399  -1.650  0.00  0.00    -0.498 OA
BRANCH  16  17
ATOM     17  C   LIG    1       -0.250  -2.479  -0.674  0.00  0.00    +0.250 C 
ATOM     18  O   LIG    1       -0.954  -2.334   0.312  0.00  0.00    -0.326 OA
BRANCH  17  19
ATOM     19  C   LIG    1        0.945  -1.670  -0.972  0.00  0.00    +0.185 C 
ATOM     20  C   LIG    1        1.357  -0.707  -0.132  0.00  0.00    +0.061 C 
BRANCH  20  21
ATOM     21  C   LIG    1        2.547   0.115  -0.383  0.00  0.00    -0.032 A 
ATOM     22  C   LIG    1        2.600   1.427   0.118  0.00  0.00    +0.042 A 
ATOM     23  C   LIG    1        3.718   2.238  -0.113  0.00  0.00    +0.101 A 
ATOM     24  C   LIG    1        4.787   1.726  -0.839  0.00  0.00    +0.088 A 
ATOM     25  C   LIG    1        4.750   0.421  -1.317  0.00  0.00    +0.090 A 
ATOM     26  C   LIG    1        3.649  -0.389  -1.086  0.00  0.00    +0.113 A 
BRANCH  24  27
ATOM     27  O   LIG    1        5.902   2.470  -1.110  0.00  0.00    -0.549 OA
ATOM     28  H   LIG    1        5.767   3.354  -0.729  0.00  0.00    +0.339 HD
ENDBRANCH  24  27
BRANCH  25  29
ATOM     29  O   LIG    1        5.803  -0.081  -2.028  0.00  0.00    -0.549 OA
ATOM     30  H   LIG    1        6.436   0.660  -2.077  0.00  0.00    +0.339 HD
ENDBRANCH  25  29
ENDBRANCH  20  21
ENDBRANCH  17  19
ENDBRANCH  16  17
ENDBRANCH   1  16
TORSDOF 11
