REMARK  Name = ZINC21982951
REMARK                            x       y       z     vdW  Elec       q    Type
REMARK                         _______ _______ _______ _____ _____    ______ ____
ROOT
ATOM      1  N   LIG    1       -1.887   3.254   8.054  0.00  0.00    -0.272 N 
ATOM      2  H   LIG    1       -1.853   2.847   7.123  0.00  0.00    +0.210 HD
ENDROOT
BRANCH   1   3
ATOM      3  C   LIG    1       -1.704   2.299   9.057  0.00  0.00    +0.123 A 
ATOM      4  N   LIG    1       -1.482   1.032   8.677  0.00  0.00    -0.213 NA
ATOM      5  C   LIG    1       -1.264   0.122   9.653  0.00  0.00    +0.142 A 
ATOM      6  C   LIG    1       -0.971  -1.295   9.281  0.00  0.00    +0.278 C 
ATOM      7  N   LIG    1       -1.314   0.416  10.958  0.00  0.00    -0.217 N 
ATOM      8  H   LIG    1       -1.100  -0.303  11.639  0.00  0.00    +0.497 HD
ATOM      9  C   LIG    1       -1.559   1.660  11.383  0.00  0.00    +0.141 A 
ATOM     10  C   LIG    1       -1.775   2.629  10.407  0.00  0.00    +0.237 A 
BRANCH   9  11
ATOM     11  N   LIG    1       -1.508   1.911  12.745  0.00  0.00    -0.310 N 
ATOM     12  C   LIG    1       -2.464   1.209  13.640  0.00  0.00    +0.182 C 
ATOM     13  C   LIG    1       -3.690   2.092  14.023  0.00  0.00    +0.142 C 
ATOM     14  N   LIG    1       -3.267   3.469  14.537  0.00  0.00    +0.432 N 
ATOM     15  H   LIG    1       -4.114   4.052  14.593  0.00  0.00    +0.137 HD
ATOM     16  C   LIG    1       -2.369   4.138  13.492  0.00  0.00    +0.142 C 
ATOM     17  C   LIG    1       -1.119   3.273  13.223  0.00  0.00    +0.182 C 
BRANCH  14  18
ATOM     18  C   LIG    1       -2.711   3.409  15.968  0.00  0.00    +0.152 C 
BRANCH  18  19
ATOM     19  C   LIG    1       -2.293   4.779  16.525  0.00  0.00    +0.204 C 
BRANCH  19  20
ATOM     20  O   LIG    1       -1.244   5.340  15.744  0.00  0.00    -0.451 OA
ATOM     21  H   LIG    1       -1.039   6.222  16.119  0.00  0.00    +0.237 HD
ENDBRANCH  19  20
ENDBRANCH  18  19
ENDBRANCH  14  18
ENDBRANCH   9  11
ENDBRANCH   1   3
BRANCH   1  25
ATOM     22  C   LIG    1       -0.936   6.867   7.660  0.00  0.00    +0.128 A 
ATOM     23  C   LIG    1       -0.662   6.435   8.941  0.00  0.00    +0.207 A 
ATOM     24  N   LIG    1       -1.039   5.136   9.230  0.00  0.00    -0.277 NA
ATOM     25  C   LIG    1       -1.556   4.565   8.161  0.00  0.00    +0.114 A 
ATOM     26  S   LIG    1       -1.789   5.633   6.829  0.00  0.00    -0.027 S 
BRANCH  22  29
ATOM     27  N   LIG    1       -0.948   8.294   5.731  0.00  0.00    -0.271 N 
ATOM     28  H   LIG    1       -1.750   7.757   5.426  0.00  0.00    +0.210 HD
ATOM     29  C   LIG    1       -0.543   8.120   7.042  0.00  0.00    +0.213 C 
ATOM     30  O   LIG    1        0.083   8.974   7.685  0.00  0.00    -0.361 OA
BRANCH  27  38
ATOM     31  C   LIG    1       -3.023   9.937   4.491  0.00  0.00    +0.088 C 
ATOM     32  C   LIG    1       -1.549  10.147   4.265  0.00  0.00    -0.047 A 
ATOM     33  C   LIG    1       -1.158  11.192   3.409  0.00  0.00    +0.017 A 
ATOM     34  C   LIG    1        0.188  11.487   3.201  0.00  0.00    +0.014 A 
ATOM     35  C   LIG    1        1.169  10.730   3.833  0.00  0.00    +0.057 A 
ATOM     36  C   LIG    1        0.807   9.684   4.688  0.00  0.00    +0.047 A 
ATOM     37 CL   LIG    1        2.096   8.696   5.297  0.00  0.00    -0.120 Cl
ATOM     38  C   LIG    1       -0.554   9.387   4.920  0.00  0.00    +0.031 A 
ENDBRANCH  27  38
ENDBRANCH  22  29
ENDBRANCH   1  25
TORSDOF 8
