REMARK  Name = ZINC13493055
REMARK                            x       y       z     vdW  Elec       q    Type
REMARK                         _______ _______ _______ _____ _____    ______ ____
ROOT
ATOM      1  C   LIG    1        2.092   1.228  -0.285  0.00  0.00    +0.125 A 
ATOM      2  C   LIG    1        3.261   0.637  -0.633  0.00  0.00    +0.078 A 
ATOM      3  C   LIG    1        3.377  -0.791  -0.910  0.00  0.00    +0.086 A 
ATOM      4  C   LIG    1        4.552  -1.337  -1.243  0.00  0.00    +0.098 A 
ATOM      5  C   LIG    1        5.692  -0.406  -1.329  0.00  0.00    +0.094 A 
ATOM      6  N   LIG    1        5.659   0.867  -1.101  0.00  0.00    -0.229 NA
ATOM      7  N   LIG    1        4.432   1.397  -0.744  0.00  0.00    -0.261 N 
ATOM      8  C   LIG    1        4.331   2.747  -0.474  0.00  0.00    +0.292 A 
ATOM      9  N   LIG    1        3.276   3.404  -0.127  0.00  0.00    -0.209 NA
ATOM     10  C   LIG    1        2.094   2.711  -0.001  0.00  0.00    +0.249 A 
ATOM     11  O   LIG    1        1.049   3.259   0.336  0.00  0.00    -0.347 OA
ENDROOT
BRANCH   1  16
ATOM     12  C   LIG    1       -1.669  -0.841  -0.028  0.00  0.00    +0.021 A 
ATOM     13  C   LIG    1       -1.280  -0.236  -1.221  0.00  0.00    +0.054 A 
ATOM     14  C   LIG    1       -0.056   0.436  -1.303  0.00  0.00    +0.045 A 
ATOM     15 CL   LIG    1        0.363   1.142  -2.828  0.00  0.00    -0.124 Cl
ATOM     16  C   LIG    1        0.801   0.511  -0.190  0.00  0.00    +0.062 A 
ATOM     17  C   LIG    1        0.390  -0.098   1.009  0.00  0.00    +0.045 A 
ATOM     18 CL   LIG    1        1.376  -0.073   2.431  0.00  0.00    -0.124 Cl
ATOM     19  C   LIG    1       -0.835  -0.772   1.086  0.00  0.00    +0.054 A 
ENDBRANCH   1  16
BRANCH   5  20
ATOM     20  S   LIG    1        7.207  -1.179  -1.744  0.00  0.00    -0.064 S 
BRANCH  20  21
ATOM     21  C   LIG    1        7.654  -0.272  -3.212  0.00  0.00    +0.059 A 
ATOM     22  C   LIG    1        8.864   0.433  -3.240  0.00  0.00    +0.072 A 
ATOM     23  C   LIG    1        9.250   1.118  -4.395  0.00  0.00    +0.096 A 
ATOM     24  C   LIG    1        8.432   1.088  -5.520  0.00  0.00    +0.099 A 
ATOM     25  F   LIG    1        8.811   1.740  -6.626  0.00  0.00    -0.288 F 
ATOM     26  C   LIG    1        7.231   0.392  -5.514  0.00  0.00    +0.174 A 
ATOM     27  C   LIG    1        6.849  -0.281  -4.358  0.00  0.00    +0.123 A 
ATOM     28  F   LIG    1        5.687  -0.954  -4.364  0.00  0.00    -0.280 F 
ENDBRANCH  20  21
ENDBRANCH   5  20
TORSDOF 3
