REMARK  Name = ZINC18710085
REMARK                            x       y       z     vdW  Elec       q    Type
REMARK                         _______ _______ _______ _____ _____    ______ ____
ROOT
ATOM      1  C   LIG    1       -1.207   3.071  -2.155  0.00  0.00    +0.220 C 
ATOM      2  N   LIG    1       -1.334   1.961  -1.232  0.00  0.00    -0.342 N 
ATOM      3  C   LIG    1       -1.400   0.702  -1.769  0.00  0.00    +0.044 A 
ATOM      4  C   LIG    1       -1.841   0.362  -3.020  0.00  0.00    +0.080 A 
ATOM      5  C   LIG    1       -1.168  -0.706  -3.553  0.00  0.00    +0.099 A 
ATOM      6  C   LIG    1       -0.541  -1.673  -2.783  0.00  0.00    +0.068 A 
ATOM      7  C   LIG    1       -0.223  -1.356  -1.438  0.00  0.00    +0.153 A 
ATOM      8  C   LIG    1       -0.617  -0.085  -0.938  0.00  0.00    +0.082 A 
ATOM      9  N   LIG    1       -0.373   0.626   0.232  0.00  0.00    -0.253 NA
ATOM     10  C   LIG    1       -0.938   1.823   0.089  0.00  0.00    +0.114 A 
ENDROOT
BRANCH  10  11
ATOM     11  N   LIG    1       -1.069   2.794   1.035  0.00  0.00    -0.300 N 
ATOM     12  H   LIG    1       -0.302   2.871   1.700  0.00  0.00    +0.203 HD
BRANCH  11  13
ATOM     13  C   LIG    1       -2.078   3.761   1.228  0.00  0.00    -0.009 A 
ATOM     14  C   LIG    1       -2.867   4.218   0.168  0.00  0.00    +0.051 A 
ATOM     15  C   LIG    1       -3.814   5.225   0.241  0.00  0.00    +0.065 A 
ATOM     16  C   LIG    1       -4.079   5.793   1.450  0.00  0.00    +0.076 A 
ATOM     17  C   LIG    1       -3.393   5.298   2.580  0.00  0.00    +0.065 A 
ATOM     18  C   LIG    1       -2.438   4.259   2.464  0.00  0.00    +0.051 A 
BRANCH  16  19
ATOM     19  C   LIG    1       -5.111   6.889   1.570  0.00  0.00    +0.365 C 
ATOM     20  F   LIG    1       -4.570   8.080   1.903  0.00  0.00    -0.190 F 
ATOM     21  F   LIG    1       -6.078   6.607   2.459  0.00  0.00    -0.190 F 
ATOM     22  F   LIG    1       -5.762   7.108   0.368  0.00  0.00    -0.190 F 
ENDBRANCH  16  19
ENDBRANCH  11  13
ENDBRANCH  10  11
BRANCH   6  23
ATOM     23  O   LIG    1       -0.158  -2.892  -3.319  0.00  0.00    -0.528 OA
BRANCH  23  24
ATOM     24  C   LIG    1       -0.905  -3.532  -4.309  0.00  0.00    +0.074 A 
ATOM     25  C   LIG    1       -1.688  -2.953  -5.313  0.00  0.00    +0.126 A 
ATOM     26  C   LIG    1       -2.282  -3.718  -6.297  0.00  0.00    +0.151 A 
ATOM     27  N   LIG    1       -2.239  -5.046  -6.309  0.00  0.00    -0.304 NA
ATOM     28  C   LIG    1       -1.547  -5.627  -5.294  0.00  0.00    +0.092 A 
ATOM     29  C   LIG    1       -0.833  -4.923  -4.319  0.00  0.00    +0.160 A 
BRANCH  28  30
ATOM     30  C   LIG    1       -1.708  -7.069  -5.274  0.00  0.00    +0.111 A 
ATOM     31  N   LIG    1       -2.512  -7.712  -6.190  0.00  0.00    -0.317 N 
ATOM     32  C   LIG    1       -2.553  -9.042  -5.871  0.00  0.00    +0.156 A 
ATOM     33  C   LIG    1       -1.728  -9.161  -4.775  0.00  0.00    +0.225 A 
ATOM     34  H   LIG    1       -3.009  -7.239  -6.935  0.00  0.00    +0.217 HD
ATOM     35  N   LIG    1       -1.210  -7.942  -4.411  0.00  0.00    -0.275 NA
BRANCH  32  36
ATOM     36  C   LIG    1       -3.357 -10.013  -6.622  0.00  0.00    +0.388 C 
ATOM     37  F   LIG    1       -4.283 -10.618  -5.838  0.00  0.00    -0.181 F 
ATOM     38  F   LIG    1       -2.598 -10.988  -7.173  0.00  0.00    -0.181 F 
ATOM     39  F   LIG    1       -4.034  -9.417  -7.639  0.00  0.00    -0.181 F 
ENDBRANCH  32  36
ENDBRANCH  28  30
ENDBRANCH  23  24
ENDBRANCH   6  23
TORSDOF 7
