REMARK  Name = ZINC13677843
REMARK                            x       y       z     vdW  Elec       q    Type
REMARK                         _______ _______ _______ _____ _____    ______ ____
ROOT
ATOM      1  C   LIG    1        1.575  -1.158   3.465  0.00  0.00    +0.092 A 
ATOM      2  C   LIG    1        1.036  -1.994   2.465  0.00  0.00    +0.112 A 
ATOM      3  C   LIG    1        0.960  -3.355   2.703  0.00  0.00    -0.026 A 
ATOM      4  C   LIG    1        1.431  -3.870   3.930  0.00  0.00    +0.011 A 
ATOM      5  C   LIG    1        1.234  -5.269   3.846  0.00  0.00    +0.049 A 
ATOM      6  C   LIG    1        0.671  -5.611   2.650  0.00  0.00    +0.035 A 
ATOM      7  C   LIG    1        0.455  -6.990   2.748  0.00  0.00    +0.101 A 
ATOM      8  N   LIG    1        0.849  -7.464   3.940  0.00  0.00    -0.240 NA
ATOM      9  N   LIG    1        1.359  -6.384   4.583  0.00  0.00    -0.311 N 
ATOM     10  H   LIG    1        1.743  -6.496   5.523  0.00  0.00    +0.251 HD
ATOM     11  C   LIG    1        1.954  -3.088   4.925  0.00  0.00    +0.129 A 
ATOM     12  C   LIG    1        0.430  -4.445   1.753  0.00  0.00    +0.152 C 
ATOM     13  C   LIG    1        2.024  -1.706   4.700  0.00  0.00    +0.094 A 
ENDROOT
BRANCH   1  15
ATOM     14  C   LIG    1        2.072   1.127   3.996  0.00  0.00    +0.355 C 
ATOM     15  O   LIG    1        1.584   0.161   3.078  0.00  0.00    -0.568 OA
ENDBRANCH   1  15
BRANCH   7  16
ATOM     16  N   LIG    1       -0.171  -7.737   1.810  0.00  0.00    -0.308 N 
ATOM     17  H   LIG    1       -0.523  -8.632   2.137  0.00  0.00    +0.197 HD
BRANCH  16  18
ATOM     18  C   LIG    1       -0.129  -7.638   0.408  0.00  0.00    +0.000 A 
ATOM     19  C   LIG    1       -1.196  -8.155  -0.343  0.00  0.00    +0.047 A 
ATOM     20  C   LIG    1       -1.226  -8.023  -1.735  0.00  0.00    +0.029 A 
ATOM     21  C   LIG    1       -0.192  -7.363  -2.395  0.00  0.00    +0.087 A 
ATOM     22  C   LIG    1        0.859  -6.841  -1.656  0.00  0.00    +0.090 A 
ATOM     23  F   LIG    1        1.857  -6.203  -2.283  0.00  0.00    -0.289 F 
ATOM     24  C   LIG    1        0.898  -6.975  -0.274  0.00  0.00    +0.124 A 
ENDBRANCH  16  18
ENDBRANCH   7  16
BRANCH  13  25
ATOM     25  O   LIG    1        2.600  -0.879   5.630  0.00  0.00    -0.568 OA
ATOM     26  C   LIG    1        2.420  -1.235   6.996  0.00  0.00    +0.355 C 
ENDBRANCH  13  25
TORSDOF 4
