REMARK  Name = ZINC19632618
REMARK                            x       y       z     vdW  Elec       q    Type
REMARK                         _______ _______ _______ _____ _____    ______ ____
ROOT
ATOM      1  C   LIG    1        1.002  -1.195   1.182  0.00  0.00    +0.087 C 
ATOM      2  C   LIG    1        0.453   0.206   1.118  0.00  0.00    -0.053 A 
ATOM      3  C   LIG    1       -0.375   0.534   0.036  0.00  0.00    +0.024 A 
ATOM      4  C   LIG    1       -0.934   1.804  -0.080  0.00  0.00    +0.047 A 
ATOM      5  C   LIG    1       -0.683   2.778   0.880  0.00  0.00    +0.001 A 
ATOM      6  C   LIG    1        0.159   2.455   1.954  0.00  0.00    +0.086 A 
ATOM      7  C   LIG    1        0.717   1.170   2.115  0.00  0.00    +0.002 A 
ENDROOT
BRANCH   5   8
ATOM      8  N   LIG    1       -1.239   4.082   0.840  0.00  0.00    -0.282 N 
ATOM      9  H   LIG    1       -0.938   4.703   1.579  0.00  0.00    +0.207 HD
ATOM     10  C   LIG    1       -2.227   4.515  -0.027  0.00  0.00    +0.188 C 
ATOM     11  O   LIG    1       -2.777   3.809  -0.872  0.00  0.00    -0.367 OA
BRANCH  10  12
ATOM     12  C   LIG    1       -2.702   5.932   0.080  0.00  0.00    +0.042 A 
ATOM     13  C   LIG    1       -3.779   6.292  -0.746  0.00  0.00    +0.050 A 
ATOM     14  C   LIG    1       -4.332   7.570  -0.699  0.00  0.00    +0.020 A 
ATOM     15  C   LIG    1       -3.823   8.525   0.186  0.00  0.00    -0.065 A 
ATOM     16  C   LIG    1       -2.721   8.186   0.985  0.00  0.00    +0.020 A 
ATOM     17  C   LIG    1       -2.160   6.899   0.936  0.00  0.00    +0.050 A 
BRANCH  15  18
ATOM     18  C   LIG    1       -4.480   9.888   0.275  0.00  0.00    +0.145 C 
BRANCH  18  19
ATOM     19  N   LIG    1       -4.989  10.215   1.622  0.00  0.00    -0.340 NA
ATOM     20  C   LIG    1       -5.566  11.577   1.642  0.00  0.00    +0.116 C 
ATOM     21  C   LIG    1       -6.905  11.730   0.876  0.00  0.00    +0.113 C 
ATOM     22  N   LIG    1       -7.948  10.736   1.193  0.00  0.00    -0.351 NA
ATOM     23  C   LIG    1       -8.706  11.111   2.383  0.00  0.00    +0.127 C 
ATOM     24  C   LIG    1       -7.379   9.379   1.315  0.00  0.00    +0.113 C 
ATOM     25  C   LIG    1       -6.040   9.282   2.083  0.00  0.00    +0.116 C 
ENDBRANCH  18  19
ENDBRANCH  15  18
ENDBRANCH  10  12
ENDBRANCH   5   8
BRANCH   7  26
ATOM     26  N   LIG    1        1.543   0.840   3.204  0.00  0.00    -0.291 N 
ATOM     27  H   LIG    1        1.777  -0.135   3.321  0.00  0.00    +0.205 HD
BRANCH  26  28
ATOM     28  C   LIG    1        1.966   1.529   4.337  0.00  0.00    +0.142 A 
ATOM     29  N   LIG    1        2.611   0.787   5.249  0.00  0.00    -0.270 NA
ATOM     30  C   LIG    1        3.026   1.413   6.364  0.00  0.00    +0.160 A 
ATOM     31  C   LIG    1        2.822   2.749   6.606  0.00  0.00    +0.106 A 
ATOM     32  C   LIG    1        2.152   3.447   5.625  0.00  0.00    +0.060 A 
ATOM     33  N   LIG    1        1.738   2.839   4.492  0.00  0.00    -0.252 NA
BRANCH  32  34
ATOM     34  C   LIG    1        1.836   4.883   5.715  0.00  0.00    +0.015 A 
ATOM     35  C   LIG    1        1.741   5.691   4.571  0.00  0.00    +0.047 A 
ATOM     36  C   LIG    1        1.437   7.048   4.676  0.00  0.00    +0.046 A 
ATOM     37  C   LIG    1        1.232   7.575   5.938  0.00  0.00    +0.124 A 
ATOM     38  N   LIG    1        1.304   6.846   7.070  0.00  0.00    -0.337 NA
ATOM     39  C   LIG    1        1.595   5.529   6.929  0.00  0.00    +0.151 A 
ENDBRANCH  32  34
ENDBRANCH  26  28
ENDBRANCH   7  26
TORSDOF 7
