REMARK  Name = ZINC40861910
REMARK                            x       y       z     vdW  Elec       q    Type
REMARK                         _______ _______ _______ _____ _____    ______ ____
ROOT
ATOM      1  C   LIG    1        4.273   2.583  -4.369  0.00  0.00    +0.034 A 
ATOM      2  C   LIG    1        4.268   3.806  -3.704  0.00  0.00    +0.083 A 
ATOM      3  C   LIG    1        3.117   4.590  -3.681  0.00  0.00    +0.042 A 
ATOM      4  C   LIG    1        1.948   4.197  -4.342  0.00  0.00    -0.028 A 
ATOM      5  C   LIG    1        1.940   2.931  -4.959  0.00  0.00    -0.049 A 
ATOM      6  C   LIG    1        0.635   2.448  -5.540  0.00  0.00    +0.076 C 
ATOM      7  C   LIG    1       -0.535   2.801  -4.597  0.00  0.00    +0.084 C 
ATOM      8  C   LIG    1       -0.550   4.268  -4.197  0.00  0.00    -0.023 A 
ATOM      9  C   LIG    1       -1.656   4.981  -3.674  0.00  0.00    +0.014 A 
ATOM     10  N   LIG    1       -2.942   4.652  -3.257  0.00  0.00    -0.374 N 
ATOM     11  C   LIG    1       -3.586   5.763  -2.688  0.00  0.00    +0.003 A 
ATOM     12  C   LIG    1       -2.732   6.869  -2.791  0.00  0.00    -0.003 A 
ATOM     13  C   LIG    1       -3.157   8.108  -2.267  0.00  0.00    +0.033 A 
ATOM     14  C   LIG    1       -4.398   8.205  -1.630  0.00  0.00    +0.008 A 
ATOM     15  C   LIG    1       -5.226   7.096  -1.524  0.00  0.00    +0.012 A 
ATOM     16  C   LIG    1       -4.843   5.867  -2.062  0.00  0.00    +0.049 A 
ATOM     17  C   LIG    1       -1.607   6.327  -3.401  0.00  0.00    +0.012 A 
ATOM     18  C   LIG    1       -0.456   7.080  -3.700  0.00  0.00    +0.005 A 
ATOM     19  C   LIG    1       -0.200   8.520  -3.623  0.00  0.00    +0.204 C 
ATOM     20  N   LIG    1        1.160   8.545  -4.105  0.00  0.00    -0.309 N 
ATOM     21  H   LIG    1        1.691   9.385  -4.282  0.00  0.00    +0.190 HD
ATOM     22  C   LIG    1        1.705   7.317  -4.458  0.00  0.00    +0.187 C 
ATOM     23  O   LIG    1        2.821   7.238  -4.945  0.00  0.00    -0.368 OA
ATOM     24  C   LIG    1        0.665   6.353  -4.142  0.00  0.00    +0.072 A 
ATOM     25  C   LIG    1        0.695   4.958  -4.257  0.00  0.00    +0.008 A 
ATOM     26  C   LIG    1        3.104   2.147  -4.999  0.00  0.00    +0.088 A 
ENDROOT
BRANCH   1  28
ATOM     27  C   LIG    1        6.525   2.177  -3.770  0.00  0.00    +0.350 C 
ATOM     28  O   LIG    1        5.345   1.734  -4.435  0.00  0.00    -0.584 OA
ENDBRANCH   1  28
BRANCH  10  29
ATOM     29  C   LIG    1       -3.554   3.329  -3.273  0.00  0.00    +0.194 C 
BRANCH  29  30
ATOM     30  C   LIG    1       -3.291   2.532  -1.997  0.00  0.00    +0.207 C 
BRANCH  30  31
ATOM     31  O   LIG    1       -3.890   3.125  -0.848  0.00  0.00    -0.453 OA
ATOM     32  H   LIG    1       -3.411   3.958  -0.668  0.00  0.00    +0.235 HD
ENDBRANCH  30  31
ENDBRANCH  29  30
ENDBRANCH  10  29
TORSDOF 4
