REMARK  Name = ZINC13677843
REMARK                            x       y       z     vdW  Elec       q    Type
REMARK                         _______ _______ _______ _____ _____    ______ ____
ROOT
ATOM      1  C   LIG    1        0.806   1.169   2.476  0.00  0.00    +0.092 A 
ATOM      2  C   LIG    1        1.046  -0.047   3.165  0.00  0.00    +0.113 A 
ATOM      3  C   LIG    1        1.447  -0.009   4.491  0.00  0.00    -0.024 A 
ATOM      4  C   LIG    1        1.631   1.251   5.091  0.00  0.00    +0.021 A 
ATOM      5  C   LIG    1        2.048   1.016   6.415  0.00  0.00    +0.080 A 
ATOM      6  C   LIG    1        2.094  -0.359   6.666  0.00  0.00    +0.034 A 
ATOM      7  C   LIG    1        2.427  -0.449   7.994  0.00  0.00    +0.067 A 
ATOM      8  N   LIG    1        2.667   0.862   8.382  0.00  0.00    -0.303 N 
ATOM      9  H   LIG    1        3.021   1.174   9.279  0.00  0.00    +0.257 HD
ATOM     10  N   LIG    1        2.386   1.788   7.440  0.00  0.00    -0.253 NA
ATOM     11  C   LIG    1        1.407   2.449   4.457  0.00  0.00    +0.131 A 
ATOM     12  C   LIG    1        1.722  -1.176   5.465  0.00  0.00    +0.152 C 
ATOM     13  C   LIG    1        0.989   2.423   3.126  0.00  0.00    +0.095 A 
ENDROOT
BRANCH   1  15
ATOM     14  C   LIG    1       -0.348   1.982   0.545  0.00  0.00    +0.355 C 
ATOM     15  O   LIG    1        0.444   0.973   1.162  0.00  0.00    -0.568 OA
ENDBRANCH   1  15
BRANCH   7  16
ATOM     16  N   LIG    1        2.612  -1.484   8.844  0.00  0.00    -0.316 N 
ATOM     17  H   LIG    1        2.706  -2.428   8.473  0.00  0.00    +0.194 HD
BRANCH  16  18
ATOM     18  C   LIG    1        2.433  -1.463  10.249  0.00  0.00    -0.001 A 
ATOM     19  C   LIG    1        1.565  -0.566  10.896  0.00  0.00    +0.046 A 
ATOM     20  C   LIG    1        1.477  -0.515  12.292  0.00  0.00    +0.029 A 
ATOM     21  C   LIG    1        2.260  -1.367  13.065  0.00  0.00    +0.087 A 
ATOM     22  C   LIG    1        3.112  -2.264  12.433  0.00  0.00    +0.090 A 
ATOM     23  F   LIG    1        3.862  -3.089  13.175  0.00  0.00    -0.289 F 
ATOM     24  C   LIG    1        3.207  -2.316  11.044  0.00  0.00    +0.124 A 
ENDBRANCH  16  18
ENDBRANCH   7  16
BRANCH  13  25
ATOM     25  O   LIG    1        0.776   3.578   2.418  0.00  0.00    -0.568 OA
ATOM     26  C   LIG    1        0.964   4.812   3.106  0.00  0.00    +0.355 C 
ENDBRANCH  13  25
TORSDOF 4
