REMARK  Name = ZINC21982951
REMARK                            x       y       z     vdW  Elec       q    Type
REMARK                         _______ _______ _______ _____ _____    ______ ____
ROOT
ATOM      1  N   LIG    1       -1.570  -3.494   7.048  0.00  0.00    -0.243 N 
ATOM      2  H   LIG    1       -1.357  -2.923   7.861  0.00  0.00    +0.230 HD
ENDROOT
BRANCH   1   3
ATOM      3  C   LIG    1       -1.725  -4.864   7.295  0.00  0.00    +0.154 A 
ATOM      4  C   LIG    1       -1.577  -5.412   8.570  0.00  0.00    +0.237 A 
ATOM      5  C   LIG    1       -1.769  -6.780   8.773  0.00  0.00    +0.109 A 
ATOM      6  N   LIG    1       -2.060  -7.564   7.713  0.00  0.00    -0.216 NA
ATOM      7  C   LIG    1       -2.161  -6.992   6.487  0.00  0.00    +0.142 A 
ATOM      8  C   LIG    1       -2.440  -7.849   5.295  0.00  0.00    +0.278 C 
ATOM      9  N   LIG    1       -2.014  -5.684   6.283  0.00  0.00    -0.215 N 
ATOM     10  H   LIG    1       -2.133  -5.271   5.356  0.00  0.00    +0.498 HD
BRANCH   5  11
ATOM     11  N   LIG    1       -1.600  -7.366  10.035  0.00  0.00    -0.343 N 
ATOM     12  C   LIG    1       -2.009  -8.794  10.141  0.00  0.00    +0.153 C 
ATOM     13  C   LIG    1       -1.726  -9.410  11.542  0.00  0.00    +0.124 C 
ATOM     14  N   LIG    1       -2.137  -8.598  12.710  0.00  0.00    -0.339 NA
ATOM     15  C   LIG    1       -1.558  -7.259  12.552  0.00  0.00    +0.124 C 
ATOM     16  C   LIG    1       -1.894  -6.544  11.228  0.00  0.00    +0.153 C 
BRANCH  14  17
ATOM     17  C   LIG    1       -3.596  -8.627  12.896  0.00  0.00    +0.136 C 
BRANCH  17  18
ATOM     18  C   LIG    1       -4.144  -7.802  14.073  0.00  0.00    +0.194 C 
BRANCH  18  19
ATOM     19  O   LIG    1       -5.562  -7.959  14.109  0.00  0.00    -0.455 OA
ATOM     20  H   LIG    1       -5.947  -7.114  14.397  0.00  0.00    +0.234 HD
ENDBRANCH  18  19
ENDBRANCH  17  18
ENDBRANCH  14  17
ENDBRANCH   5  11
ENDBRANCH   1   3
BRANCH   1  24
ATOM     21  C   LIG    1       -3.521  -1.222   4.821  0.00  0.00    +0.128 A 
ATOM     22  C   LIG    1       -3.674  -2.535   4.417  0.00  0.00    +0.208 A 
ATOM     23  N   LIG    1       -2.909  -3.478   5.103  0.00  0.00    -0.275 NA
ATOM     24  C   LIG    1       -2.202  -2.861   6.029  0.00  0.00    +0.125 A 
ATOM     25  S   LIG    1       -2.196  -1.146   5.914  0.00  0.00    -0.025 S 
BRANCH  21  28
ATOM     26  N   LIG    1       -5.610  -0.201   4.264  0.00  0.00    -0.271 N 
ATOM     27  H   LIG    1       -6.036  -0.946   4.807  0.00  0.00    +0.210 HD
ATOM     28  C   LIG    1       -4.246  -0.016   4.451  0.00  0.00    +0.213 C 
ATOM     29  O   LIG    1       -3.689   1.093   4.378  0.00  0.00    -0.361 OA
BRANCH  26  37
ATOM     30  C   LIG    1       -5.158   1.432   1.780  0.00  0.00    +0.088 C 
ATOM     31  C   LIG    1       -6.281   1.651   2.754  0.00  0.00    -0.047 A 
ATOM     32  C   LIG    1       -7.216   2.649   2.406  0.00  0.00    +0.017 A 
ATOM     33  C   LIG    1       -8.405   2.807   3.112  0.00  0.00    +0.014 A 
ATOM     34  C   LIG    1       -8.681   1.961   4.179  0.00  0.00    +0.057 A 
ATOM     35  C   LIG    1       -7.751   0.980   4.553  0.00  0.00    +0.047 A 
ATOM     36 CL   LIG    1       -8.168  -0.059   5.874  0.00  0.00    -0.120 Cl
ATOM     37  C   LIG    1       -6.518   0.836   3.875  0.00  0.00    +0.031 A 
ENDBRANCH  26  37
ENDBRANCH  21  28
ENDBRANCH   1  24
TORSDOF 8
