REMARK  Name = ZINC72105034
REMARK                            x       y       z     vdW  Elec       q    Type
REMARK                         _______ _______ _______ _____ _____    ______ ____
ROOT
ATOM      1  C   LIG    1        7.167   6.879   1.362  0.00  0.00    +0.081 A 
ATOM      2  C   LIG    1        6.669   7.076   0.088  0.00  0.00    +0.170 A 
ATOM      3  C   LIG    1        7.335   7.898  -0.777  0.00  0.00    +0.099 A 
ATOM      4  N   LIG    1        8.426   8.586  -0.355  0.00  0.00    -0.264 NA
ATOM      5  C   LIG    1        8.846   8.332   0.896  0.00  0.00    +0.275 A 
ATOM      6  N   LIG    1        8.272   7.507   1.782  0.00  0.00    -0.268 NA
ENDROOT
BRANCH   3   7
ATOM      7  N   LIG    1        6.893   8.045  -2.124  0.00  0.00    -0.245 N 
ATOM      8  C   LIG    1        7.238   9.090  -2.985  0.00  0.00    +0.241 C 
ATOM      9  N   LIG    1        7.940  10.123  -2.451  0.00  0.00    -0.245 N 
ATOM     10  H   LIG    1        7.746  10.255  -1.461  0.00  0.00    +0.219 HD
ATOM     11  O   LIG    1        6.839   9.116  -4.169  0.00  0.00    -0.336 OA
ATOM     12  C   LIG    1        6.255   6.888  -2.763  0.00  0.00    +0.226 C 
BRANCH   9  13
ATOM     13  C   LIG    1        8.249  11.308  -3.178  0.00  0.00    +0.101 A 
ATOM     14  C   LIG    1        8.978  11.297  -4.385  0.00  0.00    +0.116 A 
ATOM     15 CL   LIG    1        9.709   9.832  -4.979  0.00  0.00    -0.095 Cl
ATOM     16  C   LIG    1        9.220  12.497  -5.076  0.00  0.00    +0.096 A 
ATOM     17  C   LIG    1        8.770  13.704  -4.534  0.00  0.00    +0.180 A 
ATOM     18  C   LIG    1        8.092  13.744  -3.315  0.00  0.00    +0.096 A 
ATOM     19  C   LIG    1        7.834  12.548  -2.635  0.00  0.00    +0.116 A 
ATOM     20 CL   LIG    1        6.971  12.581  -1.126  0.00  0.00    -0.095 Cl
BRANCH  16  21
ATOM     21  O   LIG    1        9.946  12.456  -6.244  0.00  0.00    -0.572 OA
ATOM     22  C   LIG    1        9.686  13.509  -7.172  0.00  0.00    +0.353 C 
ENDBRANCH  16  21
BRANCH  18  23
ATOM     23  O   LIG    1        7.621  14.914  -2.772  0.00  0.00    -0.572 OA
ATOM     24  C   LIG    1        8.340  16.095  -3.119  0.00  0.00    +0.353 C 
ENDBRANCH  18  23
ENDBRANCH   9  13
ENDBRANCH   3   7
BRANCH   1  25
ATOM     25  N   LIG    1        6.483   6.037   2.263  0.00  0.00    -0.315 N 
ATOM     26  H   LIG    1        6.986   6.022   3.146  0.00  0.00    +0.195 HD
BRANCH  25  30
ATOM     27  C   LIG    1        4.618   2.256   1.443  0.00  0.00    -0.027 A 
ATOM     28  C   LIG    1        5.625   2.793   0.626  0.00  0.00    +0.049 A 
ATOM     29  C   LIG    1        6.251   4.017   0.888  0.00  0.00    +0.051 A 
ATOM     30  C   LIG    1        5.872   4.797   1.975  0.00  0.00    -0.014 A 
ATOM     31  C   LIG    1        4.865   4.297   2.803  0.00  0.00    +0.051 A 
ATOM     32  C   LIG    1        4.241   3.058   2.533  0.00  0.00    +0.049 A 
BRANCH  27  36
ATOM     33  N   LIG    1        4.372  -1.906   1.173  0.00  0.00    -0.347 NA
ATOM     34  C   LIG    1        3.385  -1.302   2.092  0.00  0.00    +0.121 C 
ATOM     35  C   LIG    1        3.494   0.229   2.320  0.00  0.00    +0.144 C 
ATOM     36  N   LIG    1        4.041   1.003   1.183  0.00  0.00    -0.374 N 
ATOM     37  C   LIG    1        4.384   0.311  -0.079  0.00  0.00    +0.144 C 
ATOM     38  C   LIG    1        4.189  -1.212  -0.109  0.00  0.00    +0.121 C 
BRANCH  33  40
ATOM     39  C   LIG    1        6.830  -2.401   0.848  0.00  0.00    +0.038 C 
ATOM     40  C   LIG    1        5.733  -1.808   1.731  0.00  0.00    +0.085 C 
ENDBRANCH  33  40
ENDBRANCH  27  36
ENDBRANCH  25  30
ENDBRANCH   1  25
TORSDOF 8
