REMARK  Name = ZINC03964325
REMARK                            x       y       z     vdW  Elec       q    Type
REMARK                         _______ _______ _______ _____ _____    ______ ____
ROOT
ATOM      1  C   LIG    1        3.160   1.215   7.798  0.00  0.00    +0.072 A 
ATOM      2  C   LIG    1        3.169   0.320   8.935  0.00  0.00    -0.011 A 
ATOM      3  C   LIG    1        4.299  -0.494   9.467  0.00  0.00    +0.099 C 
ATOM      4  C   LIG    1        1.882   0.325   9.468  0.00  0.00    +0.000 A 
ATOM      5  N   LIG    1        1.137   1.205   8.735  0.00  0.00    -0.383 N 
ATOM      6  H   LIG    1        0.177   1.463   8.934  0.00  0.00    +0.197 HD
ATOM      7  C   LIG    1        1.876   1.752   7.731  0.00  0.00    -0.006 A 
ATOM      8  C   LIG    1        1.244   2.748   6.816  0.00  0.00    +0.122 C 
ENDROOT
BRANCH   4   9
ATOM      9  C   LIG    1        1.247  -0.444  10.482  0.00  0.00    +0.098 C 
ATOM     10  C   LIG    1        0.208  -0.065  11.249  0.00  0.00    +0.073 C 
ATOM     11  C   LIG    1       -0.523  -0.966  12.156  0.00  0.00    +0.026 A 
ATOM     12  C   LIG    1       -0.404  -2.309  12.468  0.00  0.00    +0.118 A 
ATOM     13  C   LIG    1       -1.357  -2.860  13.325  0.00  0.00    +0.088 A 
ATOM     14  F   LIG    1       -1.281  -4.162  13.629  0.00  0.00    -0.290 F 
ATOM     15  C   LIG    1       -2.403  -2.097  13.866  0.00  0.00    +0.095 A 
ATOM     16  C   LIG    1       -2.517  -0.742  13.555  0.00  0.00    +0.066 A 
ATOM     17  C   LIG    1       -1.569  -0.211  12.701  0.00  0.00    +0.016 A 
ATOM     18  N   LIG    1       -1.524   1.096  12.232  0.00  0.00    -0.278 N 
ATOM     19  H   LIG    1       -2.177   1.829  12.467  0.00  0.00    +0.208 HD
ATOM     20  C   LIG    1       -0.489   1.273  11.340  0.00  0.00    +0.195 C 
ATOM     21  O   LIG    1       -0.240   2.303  10.724  0.00  0.00    -0.366 OA
ENDBRANCH   4   9
BRANCH   1  24
ATOM     22  N   LIG    1        5.439   1.062   6.948  0.00  0.00    -0.312 N 
ATOM     23  H   LIG    1        5.521   0.249   7.538  0.00  0.00    +0.191 HD
ATOM     24  C   LIG    1        4.185   1.607   6.838  0.00  0.00    +0.189 C 
ATOM     25  O   LIG    1        3.924   2.419   5.953  0.00  0.00    -0.367 OA
BRANCH  22  26
ATOM     26  C   LIG    1        6.587   1.320   6.082  0.00  0.00    +0.167 C 
BRANCH  26  27
ATOM     27  C   LIG    1        6.730   2.708   5.414  0.00  0.00    +0.135 C 
BRANCH  27  28
ATOM     28  N   LIG    1        5.635   3.076   4.423  0.00  0.00    +0.426 N 
ATOM     29  H   LIG    1        4.780   3.131   5.017  0.00  0.00    +0.132 HD
BRANCH  28  31
ATOM     30  C   LIG    1        4.645   5.050   3.153  0.00  0.00    +0.053 C 
ATOM     31  C   LIG    1        5.838   4.473   3.896  0.00  0.00    +0.097 C 
ENDBRANCH  28  31
BRANCH  28  32
ATOM     32  C   LIG    1        5.271   2.002   3.427  0.00  0.00    +0.097 C 
ATOM     33  C   LIG    1        6.410   1.699   2.480  0.00  0.00    +0.053 C 
ENDBRANCH  28  32
ENDBRANCH  27  28
ENDBRANCH  26  27
ENDBRANCH  22  26
ENDBRANCH   1  24
TORSDOF 7
