REMARK  Name = ZINC02576349
REMARK                            x       y       z     vdW  Elec       q    Type
REMARK                         _______ _______ _______ _____ _____    ______ ____
ROOT
ATOM      1  N   LIG    1        1.123   2.321   0.198  0.00  0.00    -0.292 N 
ATOM      2  C   LIG    1        1.802   2.465   1.381  0.00  0.00    +0.137 A 
ATOM      3  C   LIG    1        1.712   3.807   1.723  0.00  0.00    +0.119 A 
ATOM      4  C   LIG    1        2.273   4.166   2.960  0.00  0.00    +0.095 A 
ATOM      5  N   LIG    1        2.905   3.224   3.690  0.00  0.00    -0.265 NA
ATOM      6  C   LIG    1        2.959   1.970   3.216  0.00  0.00    +0.279 A 
ATOM      7  C   LIG    1        1.050   4.428   0.611  0.00  0.00    +0.105 A 
ATOM      8  N   LIG    1        2.421   1.502   2.085  0.00  0.00    -0.251 NA
ATOM      9  N   LIG    1        0.734   3.508  -0.319  0.00  0.00    -0.241 NA
ENDROOT
BRANCH   7  10
ATOM     10  C   LIG    1        0.785   5.864   0.365  0.00  0.00    +0.012 A 
ATOM     11  C   LIG    1        1.785   6.784   0.737  0.00  0.00    +0.036 A 
ATOM     12  C   LIG    1        1.624   8.152   0.544  0.00  0.00    +0.011 A 
ATOM     13  C   LIG    1        0.476   8.630  -0.072  0.00  0.00    +0.021 A 
ATOM     14  C   LIG    1       -0.525   7.750  -0.505  0.00  0.00    -0.043 A 
ATOM     15  C   LIG    1       -1.646   8.275  -1.173  0.00  0.00    +0.020 A 
ATOM     16  C   LIG    1       -2.663   7.444  -1.632  0.00  0.00    +0.005 A 
ATOM     17  C   LIG    1       -2.583   6.079  -1.408  0.00  0.00    +0.005 A 
ATOM     18  C   LIG    1       -1.479   5.545  -0.734  0.00  0.00    +0.025 A 
ATOM     19  C   LIG    1       -0.401   6.352  -0.281  0.00  0.00    -0.023 A 
ENDBRANCH   7  10
BRANCH   1  21
ATOM     20  C   LIG    1        1.994   0.858  -1.570  0.00  0.00    +0.075 C 
ATOM     21  C   LIG    1        0.855   1.083  -0.561  0.00  0.00    +0.025 C 
ATOM     22  C   LIG    1        0.729  -0.164   0.343  0.00  0.00    +0.075 C 
ATOM     23  C   LIG    1       -0.482   1.196  -1.333  0.00  0.00    +0.075 C 
ENDBRANCH   1  21
BRANCH   4  24
ATOM     24  N   LIG    1        2.225   5.430   3.533  0.00  0.00    -0.344 N 
ATOM     25  H   LIG    1        2.486   5.370   4.511  0.00  0.00    +0.169 HD
ATOM     26  H   LIG    1        1.371   5.941   3.344  0.00  0.00    +0.169 HD
ENDBRANCH   4  24
TORSDOF 3
