REMARK  Name = ZINC72105034
REMARK                            x       y       z     vdW  Elec       q    Type
REMARK                         _______ _______ _______ _____ _____    ______ ____
ROOT
ATOM      1  C   LIG    1       -4.819  -8.263   4.452  0.00  0.00    +0.081 A 
ATOM      2  C   LIG    1       -4.674  -9.004   3.304  0.00  0.00    +0.170 A 
ATOM      3  C   LIG    1       -5.076 -10.326   3.353  0.00  0.00    +0.099 A 
ATOM      4  N   LIG    1       -5.576 -10.897   4.463  0.00  0.00    -0.264 NA
ATOM      5  C   LIG    1       -5.768 -10.068   5.490  0.00  0.00    +0.275 A 
ATOM      6  N   LIG    1       -5.388  -8.789   5.548  0.00  0.00    -0.268 NA
ENDROOT
BRANCH   3   7
ATOM      7  N   LIG    1       -4.924 -11.144   2.201  0.00  0.00    -0.245 N 
ATOM      8  C   LIG    1       -5.495 -10.689   1.006  0.00  0.00    +0.241 C 
ATOM      9  N   LIG    1       -5.381 -11.557  -0.059  0.00  0.00    -0.245 N 
ATOM     10  H   LIG    1       -4.717 -12.306   0.039  0.00  0.00    +0.219 HD
ATOM     11  O   LIG    1       -6.029  -9.594   0.941  0.00  0.00    -0.336 OA
ATOM     12  C   LIG    1       -3.905 -12.183   2.358  0.00  0.00    +0.226 C 
BRANCH   9  13
ATOM     13  C   LIG    1       -5.810 -11.393  -1.412  0.00  0.00    +0.101 A 
ATOM     14  C   LIG    1       -5.118 -12.186  -2.366  0.00  0.00    +0.116 A 
ATOM     15 CL   LIG    1       -3.906 -13.323  -1.823  0.00  0.00    -0.095 Cl
ATOM     16  C   LIG    1       -5.395 -12.100  -3.739  0.00  0.00    +0.096 A 
ATOM     17  C   LIG    1       -6.307 -11.148  -4.182  0.00  0.00    +0.180 A 
ATOM     18  C   LIG    1       -7.033 -10.377  -3.272  0.00  0.00    +0.096 A 
ATOM     19  C   LIG    1       -6.846 -10.561  -1.883  0.00  0.00    +0.116 A 
ATOM     20 CL   LIG    1       -8.097  -9.932  -0.851  0.00  0.00    -0.095 Cl
BRANCH  16  21
ATOM     21  O   LIG    1       -4.724 -12.938  -4.594  0.00  0.00    -0.572 OA
ATOM     22  C   LIG    1       -5.411 -13.276  -5.801  0.00  0.00    +0.353 C 
ENDBRANCH  16  21
BRANCH  18  23
ATOM     23  O   LIG    1       -8.007  -9.495  -3.677  0.00  0.00    -0.572 OA
ATOM     24  C   LIG    1       -7.854  -8.906  -4.965  0.00  0.00    +0.353 C 
ENDBRANCH  18  23
ENDBRANCH   9  13
ENDBRANCH   3   7
BRANCH   1  25
ATOM     25  N   LIG    1       -4.373  -6.922   4.448  0.00  0.00    -0.315 N 
ATOM     26  H   LIG    1       -3.441  -6.862   4.053  0.00  0.00    +0.195 HD
BRANCH  25  30
ATOM     27  C   LIG    1       -5.114  -3.902   7.372  0.00  0.00    -0.024 A 
ATOM     28  C   LIG    1       -5.942  -5.022   7.249  0.00  0.00    +0.049 A 
ATOM     29  C   LIG    1       -5.713  -6.004   6.286  0.00  0.00    +0.051 A 
ATOM     30  C   LIG    1       -4.603  -5.960   5.446  0.00  0.00    -0.014 A 
ATOM     31  C   LIG    1       -3.773  -4.849   5.542  0.00  0.00    +0.051 A 
ATOM     32  C   LIG    1       -4.036  -3.841   6.473  0.00  0.00    +0.049 A 
BRANCH  27  37
ATOM     33  N   LIG    1       -4.811  -2.884  11.126  0.00  0.00    +0.428 N 
ATOM     34  H   LIG    1       -5.172  -1.946  11.339  0.00  0.00    +0.134 HD
ATOM     35  C   LIG    1       -3.697  -2.704  10.087  0.00  0.00    +0.136 C 
ATOM     36  C   LIG    1       -4.253  -2.075   8.794  0.00  0.00    +0.155 C 
ATOM     37  N   LIG    1       -5.380  -2.868   8.275  0.00  0.00    -0.369 N 
ATOM     38  C   LIG    1       -6.488  -3.001   9.240  0.00  0.00    +0.155 C 
ATOM     39  C   LIG    1       -5.985  -3.683  10.528  0.00  0.00    +0.136 C 
BRANCH  33  41
ATOM     40  C   LIG    1       -3.206  -2.733  13.036  0.00  0.00    +0.054 C 
ATOM     41  C   LIG    1       -4.349  -3.513  12.415  0.00  0.00    +0.099 C 
ENDBRANCH  33  41
ENDBRANCH  27  37
ENDBRANCH  25  30
ENDBRANCH   1  25
TORSDOF 8
