REMARK  Name = ZINC21982951
REMARK                            x       y       z     vdW  Elec       q    Type
REMARK                         _______ _______ _______ _____ _____    ______ ____
ROOT
ATOM      1  N   LIG    1        1.674   7.288  -4.752  0.00  0.00    -0.272 N 
ATOM      2  H   LIG    1        1.845   6.341  -4.432  0.00  0.00    +0.210 HD
ENDROOT
BRANCH   1   3
ATOM      3  C   LIG    1        1.039   7.318  -5.994  0.00  0.00    +0.123 A 
ATOM      4  N   LIG    1        0.702   6.132  -6.525  0.00  0.00    -0.213 NA
ATOM      5  C   LIG    1        0.102   6.156  -7.732  0.00  0.00    +0.142 A 
ATOM      6  C   LIG    1       -0.302   4.862  -8.366  0.00  0.00    +0.278 C 
ATOM      7  N   LIG    1       -0.118   7.275  -8.427  0.00  0.00    -0.217 N 
ATOM      8  H   LIG    1       -0.501   7.191  -9.355  0.00  0.00    +0.497 HD
ATOM      9  C   LIG    1        0.201   8.485  -7.947  0.00  0.00    +0.139 A 
ATOM     10  C   LIG    1        0.802   8.503  -6.684  0.00  0.00    +0.236 A 
BRANCH   9  11
ATOM     11  N   LIG    1        0.006   9.616  -8.742  0.00  0.00    -0.316 N 
ATOM     12  C   LIG    1        0.214  10.954  -8.104  0.00  0.00    +0.170 C 
ATOM     13  C   LIG    1        0.146  12.127  -9.119  0.00  0.00    +0.127 C 
ATOM     14  N   LIG    1       -1.003  12.102 -10.048  0.00  0.00    -0.338 NA
ATOM     15  C   LIG    1       -1.046  10.783 -10.689  0.00  0.00    +0.127 C 
ATOM     16  C   LIG    1       -1.121   9.601  -9.704  0.00  0.00    +0.170 C 
BRANCH  14  17
ATOM     17  C   LIG    1       -2.251  12.493  -9.368  0.00  0.00    +0.137 C 
BRANCH  17  18
ATOM     18  C   LIG    1       -3.503  12.502 -10.261  0.00  0.00    +0.194 C 
BRANCH  18  19
ATOM     19  O   LIG    1       -4.630  12.891  -9.485  0.00  0.00    -0.455 OA
ATOM     20  H   LIG    1       -5.395  12.926 -10.087  0.00  0.00    +0.234 HD
ENDBRANCH  18  19
ENDBRANCH  17  18
ENDBRANCH  14  17
ENDBRANCH   9  11
ENDBRANCH   1   3
BRANCH   1  24
ATOM     21  C   LIG    1        1.645   9.426  -1.677  0.00  0.00    +0.128 A 
ATOM     22  C   LIG    1        0.993  10.073  -2.708  0.00  0.00    +0.207 A 
ATOM     23  N   LIG    1        0.997   9.409  -3.921  0.00  0.00    -0.277 NA
ATOM     24  C   LIG    1        1.633   8.264  -3.815  0.00  0.00    +0.114 A 
ATOM     25  S   LIG    1        2.430   8.037  -2.304  0.00  0.00    -0.027 S 
BRANCH  21  28
ATOM     26  N   LIG    1        2.401   8.939   0.544  0.00  0.00    -0.271 N 
ATOM     27  H   LIG    1        3.159   8.449   0.094  0.00  0.00    +0.210 HD
ATOM     28  C   LIG    1        1.639   9.779  -0.263  0.00  0.00    +0.213 C 
ATOM     29  O   LIG    1        1.032  10.748   0.156  0.00  0.00    -0.361 OA
BRANCH  26  37
ATOM     30  C   LIG    1        4.946   9.296   1.893  0.00  0.00    +0.088 C 
ATOM     31  C   LIG    1        3.649   9.066   2.621  0.00  0.00    -0.047 A 
ATOM     32  C   LIG    1        3.689   8.947   4.021  0.00  0.00    +0.017 A 
ATOM     33  C   LIG    1        2.522   8.765   4.759  0.00  0.00    +0.014 A 
ATOM     34  C   LIG    1        1.292   8.703   4.109  0.00  0.00    +0.057 A 
ATOM     35  C   LIG    1        1.227   8.814   2.715  0.00  0.00    +0.047 A 
ATOM     36 CL   LIG    1       -0.324   8.545   1.988  0.00  0.00    -0.120 Cl
ATOM     37  C   LIG    1        2.405   8.985   1.957  0.00  0.00    +0.031 A 
ENDBRANCH  26  37
ENDBRANCH  21  28
ENDBRANCH   1  24
TORSDOF 8
