REMARK  Name = ZINC03973984
REMARK                            x       y       z     vdW  Elec       q    Type
REMARK                         _______ _______ _______ _____ _____    ______ ____
ROOT
ATOM      1  C   LIG    1        5.865   0.105   2.606  0.00  0.00    +0.143 A 
ATOM      2  N   LIG    1        5.958   1.351   3.075  0.00  0.00    -0.253 NA
ATOM      3  C   LIG    1        6.259   1.542   4.364  0.00  0.00    +0.056 A 
ATOM      4  C   LIG    1        6.354   2.844   4.836  0.00  0.00    +0.064 A 
ATOM      5  C   LIG    1        6.685   3.125   6.163  0.00  0.00    +0.015 A 
ATOM      6  C   LIG    1        6.945   2.083   7.042  0.00  0.00    +0.010 A 
ATOM      7  C   LIG    1        6.826   0.768   6.600  0.00  0.00    +0.043 A 
ATOM      8  C   LIG    1        6.463   0.488   5.255  0.00  0.00    +0.036 A 
ATOM      9  C   LIG    1        6.269  -0.779   4.693  0.00  0.00    +0.101 A 
ATOM     10  N   LIG    1        5.972  -0.972   3.389  0.00  0.00    -0.243 NA
ENDROOT
BRANCH   1  16
ATOM     11  C   LIG    1        1.349  -0.570   0.746  0.00  0.00    +0.156 C 
ATOM     12  N   LIG    1        2.821  -0.445   0.493  0.00  0.00    +0.428 N 
ATOM     13  H   LIG    1        2.975  -0.550  -0.518  0.00  0.00    +0.133 HD
ATOM     14  C   LIG    1        3.614  -1.564   1.185  0.00  0.00    +0.137 C 
ATOM     15  C   LIG    1        5.120  -1.414   0.883  0.00  0.00    +0.172 C 
ATOM     16  N   LIG    1        5.589  -0.072   1.250  0.00  0.00    -0.320 N 
ATOM     17  C   LIG    1        4.867   1.040   0.614  0.00  0.00    +0.172 C 
ATOM     18  C   LIG    1        3.349   0.942   0.885  0.00  0.00    +0.137 C 
ENDBRANCH   1  16
BRANCH   9  19
ATOM     19  C   LIG    1        6.279  -1.999   5.493  0.00  0.00    +0.134 C 
ATOM     20  C   LIG    1        7.279  -2.840   5.811  0.00  0.00    +0.114 C 
ATOM     21  C   LIG    1        6.672  -3.889   6.676  0.00  0.00    +0.216 C 
ATOM     22  N   LIG    1        5.344  -3.669   6.727  0.00  0.00    -0.216 N 
ATOM     23  H   LIG    1        4.700  -4.228   7.260  0.00  0.00    +0.231 HD
ATOM     24  O   LIG    1        7.243  -4.777   7.286  0.00  0.00    -0.362 OA
ATOM     25  C   LIG    1        5.026  -2.538   6.065  0.00  0.00    +0.222 C 
ATOM     26  O   LIG    1        3.920  -2.049   5.943  0.00  0.00    -0.361 OA
BRANCH  20  27
ATOM     27  C   LIG    1        8.659  -2.789   5.443  0.00  0.00    +0.027 A 
ATOM     28  C   LIG    1        9.367  -1.624   5.222  0.00  0.00    +0.108 A 
ATOM     29  N   LIG    1       10.643  -1.954   4.850  0.00  0.00    -0.388 N 
ATOM     30  C   LIG    1       10.787  -3.317   4.810  0.00  0.00    -0.004 A 
ATOM     31  C   LIG    1       11.909  -4.080   4.459  0.00  0.00    +0.048 A 
ATOM     32  C   LIG    1       11.806  -5.468   4.546  0.00  0.00    +0.012 A 
ATOM     33  C   LIG    1       10.622  -6.067   4.960  0.00  0.00    +0.008 A 
ATOM     34  C   LIG    1        9.500  -5.289   5.277  0.00  0.00    +0.032 A 
ATOM     35  H   LIG    1       11.380  -1.294   4.640  0.00  0.00    +0.195 HD
ATOM     36  C   LIG    1        9.570  -3.879   5.210  0.00  0.00    -0.003 A 
ENDBRANCH  20  27
ENDBRANCH   9  19
TORSDOF 3
